@<TRIPOS>MOLECULE
zmat70.com
 27 28 0 0 0
SMALL
GASTEIGER
Energy = 0

@<TRIPOS>ATOM
      1 C           0.0000    0.0000    0.0000 C.2     1  LIG1        0.3386
      2 C           1.4634    0.0000    0.0000 C.ar    1  LIG1        0.0799
      3 O          -0.5508    0.0000   -1.2302 O.3     1  LIG1       -0.4771
      4 O          -0.7178   -0.0111    0.9942 O.2     1  LIG1       -0.2451
      5 C           2.1581   -0.0518   -1.2211 C.ar    1  LIG1       -0.0460
      6 C           2.1910    0.0194    1.2254 C.ar    1  LIG1        0.0454
      7 H          -1.5126   -0.0083   -1.0920 H       1  LIG1        0.2954
      8 C           3.5389   -0.0958   -1.2676 C.ar    1  LIG1       -0.0609
      9 C           3.5983   -0.0478    1.1567 C.ar    1  LIG1       -0.0397
     10 N           1.5356    0.1048    2.4256 N.pl3   1  LIG1       -0.3138
     11 H           1.5795   -0.0630   -2.1388 H       1  LIG1        0.0626
     12 C           4.2504   -0.1023   -0.0620 C.ar    1  LIG1       -0.0600
     13 C           2.1374    0.0101    3.6973 C.ar    1  LIG1        0.0327
     14 H           4.0586   -0.1355   -2.2199 H       1  LIG1        0.0618
     15 H           4.1722   -0.0669    2.0773 H       1  LIG1        0.0636
     16 H           0.5265   -0.0167    2.3630 H       1  LIG1        0.1522
     17 C           2.9700    1.0269    4.1754 C.ar    1  LIG1       -0.0405
     18 C           1.8288   -1.0770    4.5198 C.ar    1  LIG1       -0.0222
     19 H           5.3365   -0.1566   -0.0740 H       1  LIG1        0.0618
     20 C           3.5100    0.9372    5.4543 C.ar    1  LIG1       -0.0586
     21 C           2.3607   -1.1350    5.8043 C.ar    1  LIG1        0.0427
     22 H           3.1773    1.8853    3.5430 H       1  LIG1        0.0636
     23 H           1.1830   -1.8697    4.1543 H       1  LIG1        0.0651
     24 C           3.2083   -0.1414    6.2839 C.ar    1  LIG1       -0.0433
     25 H           4.1584    1.7278    5.8224 H       1  LIG1        0.0619
     26 CL          1.9643   -2.4877    6.8236 Cl      1  LIG1       -0.0835
     27 H           3.6157   -0.2091    7.2875 H       1  LIG1        0.0632
@<TRIPOS>BOND
     1    14     8    1
     2    11     5    1
     3     8     5   ar
     4     8    12   ar
     5     3     7    1
     6     3     1    1
     7     5     2   ar
     8    19    12    1
     9    12     9   ar
    10     2     1    1
    11     2     6   ar
    12     1     4    2
    13     9     6   ar
    14     9    15    1
    15     6    10    1
    16    16    10    1
    17    10    13    1
    18    22    17    1
    19    13    17   ar
    20    13    18   ar
    21    23    18    1
    22    17    20   ar
    23    18    21   ar
    24    20    25    1
    25    20    24   ar
    26    21    24   ar
    27    21    26    1
    28    24    27    1
