@<TRIPOS>MOLECULE
zmat60.com
 27 28 0 0 0
SMALL
GASTEIGER
Energy = 0

@<TRIPOS>ATOM
      1 C           0.0000    0.0000    0.0000 C.2     1  LIG1        0.3386
      2 C           1.4636    0.0000    0.0000 C.ar    1  LIG1        0.0799
      3 O          -0.5506    0.0000   -1.2301 O.3     1  LIG1       -0.4771
      4 O          -0.7170   -0.0045    0.9947 O.2     1  LIG1       -0.2451
      5 C           2.1573   -0.1057   -1.2179 C.ar    1  LIG1       -0.0460
      6 C           2.1919    0.0848    1.2223 C.ar    1  LIG1        0.0454
      7 H          -1.5125   -0.0109   -1.0923 H       1  LIG1        0.2954
      8 C           3.5385   -0.1414   -1.2641 C.ar    1  LIG1       -0.0609
      9 C           3.5997    0.0277    1.1547 C.ar    1  LIG1       -0.0397
     10 N           1.5342    0.2117    2.4169 N.pl3   1  LIG1       -0.3138
     11 H           1.5778   -0.1653   -2.1332 H       1  LIG1        0.0626
     12 C           4.2510   -0.0822   -0.0607 C.ar    1  LIG1       -0.0600
     13 C           2.1249    0.3294    3.6873 C.ar    1  LIG1        0.0327
     14 H           4.0576   -0.2249   -2.2139 H       1  LIG1        0.0618
     15 H           4.1747    0.0542    2.0744 H       1  LIG1        0.0636
     16 H           0.5282    0.0644    2.3649 H       1  LIG1        0.1522
     17 C           2.9865    1.3899    3.9913 C.ar    1  LIG1       -0.0405
     18 C           1.7716   -0.5814    4.6876 C.ar    1  LIG1       -0.0222
     19 H           5.3374   -0.1306   -0.0710 H       1  LIG1        0.0618
     20 C           3.5085    1.5140    5.2740 C.ar    1  LIG1       -0.0586
     21 C           2.2869   -0.4232    5.9702 C.ar    1  LIG1        0.0427
     22 H           3.2288    2.1178    3.2224 H       1  LIG1        0.0636
     23 H           1.1044   -1.4076    4.4608 H       1  LIG1        0.0651
     24 C           3.1628    0.6125    6.2792 C.ar    1  LIG1       -0.0433
     25 H           4.1779    2.3386    5.5047 H       1  LIG1        0.0619
     26 CL          1.8336   -1.5583    7.2081 Cl      1  LIG1       -0.0835
     27 H           3.5569    0.7135    7.2853 H       1  LIG1        0.0632
@<TRIPOS>BOND
     1    14     8    1
     2    11     5    1
     3     8     5   ar
     4     8    12   ar
     5     3     7    1
     6     3     1    1
     7     5     2   ar
     8    19    12    1
     9    12     9   ar
    10     2     1    1
    11     2     6   ar
    12     1     4    2
    13     9     6   ar
    14     9    15    1
    15     6    10    1
    16    16    10    1
    17    10    13    1
    18    22    17    1
    19    13    17   ar
    20    13    18   ar
    21    17    20   ar
    22    23    18    1
    23    18    21   ar
    24    20    25    1
    25    20    24   ar
    26    21    24   ar
    27    21    26    1
    28    24    27    1
