@<TRIPOS>MOLECULE
zmat0.com
 27 28 0 0 0
SMALL
GASTEIGER
Energy = 0

@<TRIPOS>ATOM
      1 C           0.0000    0.0000    0.0000 C.2     1  LIG1        0.3386
      2 C           1.4689    0.0000    0.0000 C.ar    1  LIG1        0.0799
      3 O          -0.5450    0.0000   -1.2307 O.3     1  LIG1       -0.4771
      4 O          -0.7161   -0.0039    0.9931 O.2     1  LIG1       -0.2451
      5 C           2.1529   -0.1796   -1.2135 C.ar    1  LIG1       -0.0460
      6 C           2.2048    0.1467    1.2098 C.ar    1  LIG1        0.0454
      7 H          -1.5081   -0.0129   -1.0991 H       1  LIG1        0.2954
      8 C           3.5346   -0.2317   -1.2645 C.ar    1  LIG1       -0.0609
      9 C           3.6074    0.0448    1.1403 C.ar    1  LIG1       -0.0397
     10 N           1.5507    0.2921    2.4155 N.pl3   1  LIG1       -0.3138
     11 H           1.5687   -0.2843   -2.1214 H       1  LIG1        0.0626
     12 C           4.2550   -0.1332   -0.0709 C.ar    1  LIG1       -0.0600
     13 C           1.9132    1.0603    3.5236 C.ar    1  LIG1        0.0327
     14 H           4.0458   -0.3726   -2.2119 H       1  LIG1        0.0618
     15 H           4.1824    0.0527    2.0593 H       1  LIG1        0.0636
     16 H           0.5487    0.1283    2.3311 H       1  LIG1        0.1522
     17 C           3.0628    1.8581    3.6090 C.ar    1  LIG1       -0.0405
     18 C           1.0509    0.9986    4.6317 C.ar    1  LIG1       -0.0222
     19 H           5.3389   -0.2194   -0.0807 H       1  LIG1        0.0618
     20 C           3.3325    2.5648    4.7778 C.ar    1  LIG1       -0.0586
     21 C           1.3457    1.7148    5.7812 C.ar    1  LIG1        0.0427
     22 H           3.7253    1.9693    2.7594 H       1  LIG1        0.0636
     23 H           0.1611    0.3765    4.5938 H       1  LIG1        0.0651
     24 C           2.4888    2.5041    5.8819 C.ar    1  LIG1       -0.0433
     25 H           4.2228    3.1871    4.8225 H       1  LIG1        0.0619
     26 CL          0.2570    1.6124    7.1359 Cl      1  LIG1       -0.0835
     27 H           2.7027    3.0529    6.7927 H       1  LIG1        0.0632
@<TRIPOS>BOND
     1    14     8    1
     2    11     5    1
     3     8     5   ar
     4     8    12   ar
     5     3     7    1
     6     3     1    1
     7     5     2   ar
     8    19    12    1
     9    12     9   ar
    10     2     1    1
    11     2     6   ar
    12     1     4    2
    13     9     6   ar
    14     9    15    1
    15     6    10    1
    16    16    10    1
    17    10    13    1
    18    22    17    1
    19    13    17   ar
    20    13    18   ar
    21    17    20   ar
    22    23    18    1
    23    18    21   ar
    24    20    25    1
    25    20    24   ar
    26    21    24   ar
    27    21    26    1
    28    24    27    1
