@<TRIPOS>MOLECULE
zmat20.com
 27 28 0 0 0
SMALL
GASTEIGER
Energy = 0

@<TRIPOS>ATOM
      1 C           0.0000    0.0000    0.0000 C.2     1  LIG1        0.3386
      2 C           1.4665    0.0000    0.0000 C.ar    1  LIG1        0.0799
      3 O          -0.5469    0.0000   -1.2306 O.3     1  LIG1       -0.4771
      4 O          -0.7170   -0.0067    0.9937 O.2     1  LIG1       -0.2451
      5 C           2.1547   -0.1248   -1.2188 C.ar    1  LIG1       -0.0460
      6 C           2.1991    0.1076    1.2170 C.ar    1  LIG1        0.0454
      7 H          -1.5094   -0.0136   -1.0967 H       1  LIG1        0.2954
      8 C           3.5361   -0.1582   -1.2695 C.ar    1  LIG1       -0.0609
      9 C           3.6052    0.0364    1.1454 C.ar    1  LIG1       -0.0397
     10 N           1.5402    0.2030    2.4188 N.pl3   1  LIG1       -0.3138
     11 H           1.5725   -0.1998   -2.1311 H       1  LIG1        0.0626
     12 C           4.2539   -0.0893   -0.0705 C.ar    1  LIG1       -0.0600
     13 C           1.9857    0.7556    3.6217 C.ar    1  LIG1        0.0327
     14 H           4.0509   -0.2549   -2.2205 H       1  LIG1        0.0618
     15 H           4.1814    0.0402    2.0641 H       1  LIG1        0.0636
     16 H           0.5344    0.0620    2.3393 H       1  LIG1        0.1522
     17 C           3.0429    1.6703    3.7219 C.ar    1  LIG1       -0.0405
     18 C           1.2927    0.3867    4.7850 C.ar    1  LIG1       -0.0222
     19 H           5.3394   -0.1521   -0.0834 H       1  LIG1        0.0618
     20 C           3.3956    2.1886    4.9641 C.ar    1  LIG1       -0.0586
     21 C           1.6581    0.9297    6.0083 C.ar    1  LIG1        0.0427
     22 H           3.5600    2.0104    2.8315 H       1  LIG1        0.0636
     23 H           0.4768   -0.3278    4.7272 H       1  LIG1        0.0651
     24 C           2.7154    1.8280    6.1241 C.ar    1  LIG1       -0.0433
     25 H           4.2116    2.9040    5.0266 H       1  LIG1        0.0619
     26 CL          0.7775    0.4582    7.4337 Cl      1  LIG1       -0.0835
     27 H           2.9888    2.2355    7.0916 H       1  LIG1        0.0632
@<TRIPOS>BOND
     1    14     8    1
     2    11     5    1
     3     8     5   ar
     4     8    12   ar
     5     3     7    1
     6     3     1    1
     7     5     2   ar
     8    19    12    1
     9    12     9   ar
    10     2     1    1
    11     2     6   ar
    12     1     4    2
    13     9     6   ar
    14     9    15    1
    15     6    10    1
    16    16    10    1
    17    10    13    1
    18    22    17    1
    19    13    17   ar
    20    13    18   ar
    21    17    20   ar
    22    23    18    1
    23    18    21   ar
    24    20    25    1
    25    20    24   ar
    26    21    24   ar
    27    21    26    1
    28    24    27    1
