@<TRIPOS>MOLECULE
zmat65.com
 27 28 0 0 0
SMALL
GASTEIGER
Energy = 0

@<TRIPOS>ATOM
      1 C           0.0000    0.0000    0.0000 C.2     1  LIG1        0.3386
      2 C           1.4635    0.0000    0.0000 C.ar    1  LIG1        0.0799
      3 O          -0.5509    0.0000   -1.2301 O.3     1  LIG1       -0.4771
      4 O          -0.7171   -0.0059    0.9946 O.2     1  LIG1       -0.2451
      5 C           2.1580   -0.0941   -1.2185 C.ar    1  LIG1       -0.0460
      6 C           2.1913    0.0728    1.2232 C.ar    1  LIG1        0.0454
      7 H          -1.5127   -0.0107   -1.0918 H       1  LIG1        0.2954
      8 C           3.5392   -0.1298   -1.2644 C.ar    1  LIG1       -0.0609
      9 C           3.5992    0.0168    1.1559 C.ar    1  LIG1       -0.0397
     10 N           1.5350    0.1939    2.4191 N.pl3   1  LIG1       -0.3138
     11 H           1.5790   -0.1447   -2.1347 H       1  LIG1        0.0626
     12 C           4.2511   -0.0813   -0.0602 C.ar    1  LIG1       -0.0600
     13 C           2.1367    0.2447    3.6911 C.ar    1  LIG1        0.0327
     14 H           4.0587   -0.2041   -2.2147 H       1  LIG1        0.0618
     15 H           4.1736    0.0381    2.0762 H       1  LIG1        0.0636
     16 H           0.5285    0.0496    2.3672 H       1  LIG1        0.1522
     17 C           2.9668    1.3116    4.0523 C.ar    1  LIG1       -0.0405
     18 C           1.8291   -0.7421    4.6321 C.ar    1  LIG1       -0.0222
     19 H           5.3377   -0.1279   -0.0706 H       1  LIG1        0.0618
     20 C           3.5041    1.3697    5.3336 C.ar    1  LIG1       -0.0586
     21 C           2.3588   -0.6513    5.9157 C.ar    1  LIG1        0.0427
     22 H           3.1741    2.0936    3.3274 H       1  LIG1        0.0636
     23 H           1.1862   -1.5733    4.3590 H       1  LIG1        0.0651
     24 C           3.2035    0.3922    6.2806 C.ar    1  LIG1       -0.0433
     25 H           4.1495    2.1992    5.6100 H       1  LIG1        0.0619
     26 CL          1.9634   -1.8800    7.0818 Cl      1  LIG1       -0.0835
     27 H           3.6091    0.4403    7.2861 H       1  LIG1        0.0632
@<TRIPOS>BOND
     1    14     8    1
     2    11     5    1
     3     8     5   ar
     4     8    12   ar
     5     3     7    1
     6     3     1    1
     7     5     2   ar
     8    19    12    1
     9    12     9   ar
    10     2     1    1
    11     2     6   ar
    12     1     4    2
    13     9     6   ar
    14     9    15    1
    15     6    10    1
    16    16    10    1
    17    10    13    1
    18    22    17    1
    19    13    17   ar
    20    13    18   ar
    21    17    20   ar
    22    23    18    1
    23    18    21   ar
    24    20    25    1
    25    20    24   ar
    26    21    24   ar
    27    21    26    1
    28    24    27    1
