@<TRIPOS>MOLECULE
zmat180.com
 27 28 0 0 0
SMALL
GASTEIGER
Energy = 0

@<TRIPOS>ATOM
      1 C           0.0000    0.0000    0.0000 C.2     1  LIG1        0.3386
      2 C           1.4684    0.0000    0.0000 C.ar    1  LIG1        0.0799
      3 O          -0.5455    0.0000   -1.2305 O.3     1  LIG1       -0.4771
      4 O          -0.7164    0.0040    0.9933 O.2     1  LIG1       -0.2451
      5 C           2.1540    0.1655   -1.2149 C.ar    1  LIG1       -0.0460
      6 C           2.2035   -0.1484    1.2096 C.ar    1  LIG1        0.0454
      7 H          -1.5084    0.0141   -1.0984 H       1  LIG1        0.2954
      8 C           3.5360    0.2000   -1.2664 C.ar    1  LIG1       -0.0609
      9 C           3.6077   -0.0696    1.1392 C.ar    1  LIG1       -0.0397
     10 N           1.5506   -0.2844    2.4167 N.pl3   1  LIG1       -0.3138
     11 H           1.5710    0.2707   -2.1236 H       1  LIG1        0.0626
     12 C           4.2567    0.0935   -0.0732 C.ar    1  LIG1       -0.0600
     13 C           1.9132   -1.0570    3.5222 C.ar    1  LIG1        0.0327
     14 H           4.0485    0.3277   -2.2150 H       1  LIG1        0.0618
     15 H           4.1839   -0.0894    2.0578 H       1  LIG1        0.0636
     16 H           0.5483   -0.1218    2.3349 H       1  LIG1        0.1522
     17 C           1.0592   -1.0133    4.6373 C.ar    1  LIG1       -0.0405
     18 C           3.0167   -1.9199    3.5531 C.ar    1  LIG1       -0.0222
     19 H           5.3420    0.1586   -0.0855 H       1  LIG1        0.0618
     20 C           1.3260   -1.7810    5.7610 C.ar    1  LIG1       -0.0586
     21 C           3.2633   -2.6717    4.6974 C.ar    1  LIG1        0.0427
     22 H           0.1898   -0.3608    4.6148 H       1  LIG1        0.0636
     23 H           3.6599   -2.0465    2.6913 H       1  LIG1        0.0651
     24 C           2.4412   -2.6167    5.8158 C.ar    1  LIG1       -0.0433
     25 H           0.6557   -1.7274    6.6148 H       1  LIG1        0.0619
     26 CL          4.6466   -3.7314    4.7088 Cl      1  LIG1       -0.0835
     27 H           2.6622   -3.2125    6.6949 H       1  LIG1        0.0632
@<TRIPOS>BOND
     1    14     8    1
     2    11     5    1
     3     8     5   ar
     4     8    12   ar
     5     3     7    1
     6     3     1    1
     7     5     2   ar
     8    19    12    1
     9    12     9   ar
    10     2     1    1
    11     2     6   ar
    12     1     4    2
    13     9     6   ar
    14     9    15    1
    15     6    10    1
    16    16    10    1
    17    10    13    1
    18    23    18    1
    19    13    18   ar
    20    13    17   ar
    21    18    21   ar
    22    22    17    1
    23    17    20   ar
    24    21    26    1
    25    21    24   ar
    26    20    24   ar
    27    20    25    1
    28    24    27    1
