@<TRIPOS>MOLECULE
zmat90.com
 27 28 0 0 0
SMALL
GASTEIGER
Energy = 0

@<TRIPOS>ATOM
      1 C           0.0000    0.0000    0.0000 C.2     1  LIG1        0.3386
      2 C           1.4616    0.0000    0.0000 C.ar    1  LIG1        0.0799
      3 O          -0.5523    0.0000   -1.2303 O.3     1  LIG1       -0.4771
      4 O          -0.7176   -0.0001    0.9949 O.2     1  LIG1       -0.2451
      5 C           2.1627   -0.0059   -1.2187 C.ar    1  LIG1       -0.0460
      6 C           2.1845    0.0048    1.2285 C.ar    1  LIG1        0.0454
      7 H          -1.5138   -0.0016   -1.0905 H       1  LIG1        0.2954
      8 C           3.5444   -0.0080   -1.2596 C.ar    1  LIG1       -0.0609
      9 C           3.5950    0.0018    1.1656 C.ar    1  LIG1       -0.0397
     10 N           1.5359    0.0135    2.4289 N.pl3   1  LIG1       -0.3138
     11 H           1.5881   -0.0094   -2.1392 H       1  LIG1        0.0626
     12 C           4.2522   -0.0046   -0.0509 C.ar    1  LIG1       -0.0600
     13 C           2.1819    0.0137    3.6906 C.ar    1  LIG1        0.0327
     14 H           4.0689   -0.0132   -2.2101 H       1  LIG1        0.0618
     15 H           4.1628    0.0032    2.0908 H       1  LIG1        0.0636
     16 H           0.5189    0.0035    2.3830 H       1  LIG1        0.1522
     17 C           2.5114    1.2186    4.3142 C.ar    1  LIG1       -0.0405
     18 C           2.4653   -1.1997    4.3219 C.ar    1  LIG1       -0.0222
     19 H           5.3397   -0.0077   -0.0604 H       1  LIG1        0.0618
     20 C           3.1186    1.2075    5.5675 C.ar    1  LIG1       -0.0586
     21 C           3.0717   -1.1908    5.5742 C.ar    1  LIG1        0.0427
     22 H           2.2847    2.1539    3.8104 H       1  LIG1        0.0636
     23 H           2.2094   -2.1355    3.8349 H       1  LIG1        0.0651
     24 C           3.4031    0.0038    6.2079 C.ar    1  LIG1       -0.0433
     25 H           3.3717    2.1448    6.0556 H       1  LIG1        0.0619
     26 CL          3.4174   -2.7025    6.3621 Cl      1  LIG1       -0.0835
     27 H           3.8737   -0.0124    7.1859 H       1  LIG1        0.0632
@<TRIPOS>BOND
     1    14     8    1
     2    11     5    1
     3     8     5   ar
     4     8    12   ar
     5     3     7    1
     6     3     1    1
     7     5     2   ar
     8    19    12    1
     9    12     9   ar
    10     2     1    1
    11     2     6   ar
    12     1     4    2
    13     9     6   ar
    14     9    15    1
    15     6    10    1
    16    16    10    1
    17    10    13    1
    18    13    17   ar
    19    13    18   ar
    20    22    17    1
    21    23    18    1
    22    17    20   ar
    23    18    21   ar
    24    20    25    1
    25    20    24   ar
    26    21    24   ar
    27    21    26    1
    28    24    27    1
