@<TRIPOS>MOLECULE
zmat75.com
 27 28 0 0 0
SMALL
GASTEIGER
Energy = 0

@<TRIPOS>ATOM
      1 C           0.0000    0.0000    0.0000 C.2     1  LIG1        0.3386
      2 C           1.4632    0.0000    0.0000 C.ar    1  LIG1        0.0799
      3 O          -0.5510    0.0000   -1.2303 O.3     1  LIG1       -0.4771
      4 O          -0.7178   -0.0113    0.9942 O.2     1  LIG1       -0.2451
      5 C           2.1589   -0.0424   -1.2208 C.ar    1  LIG1       -0.0460
      6 C           2.1899    0.0102    1.2258 C.ar    1  LIG1        0.0454
      7 H          -1.5128   -0.0075   -1.0918 H       1  LIG1        0.2954
      8 C           3.5399   -0.0849   -1.2665 C.ar    1  LIG1       -0.0609
      9 C           3.5975   -0.0537    1.1579 C.ar    1  LIG1       -0.0397
     10 N           1.5366    0.0895    2.4273 N.pl3   1  LIG1       -0.3138
     11 H           1.5811   -0.0470   -2.1392 H       1  LIG1        0.0626
     12 C           4.2507   -0.0983   -0.0605 C.ar    1  LIG1       -0.0600
     13 C           2.1466   -0.0540    3.6932 C.ar    1  LIG1        0.0327
     14 H           4.0605   -0.1173   -2.2187 H       1  LIG1        0.0618
     15 H           4.1701   -0.0744    2.0795 H       1  LIG1        0.0636
     16 H           0.5265   -0.0246    2.3660 H       1  LIG1        0.1522
     17 C           2.9301    0.9729    4.2277 C.ar    1  LIG1       -0.0405
     18 C           1.9003   -1.2041    4.4476 C.ar    1  LIG1       -0.0222
     19 H           5.3370   -0.1489   -0.0724 H       1  LIG1        0.0618
     20 C           3.4829    0.8344    5.4971 C.ar    1  LIG1       -0.0586
     21 C           2.4445   -1.3131    5.7237 C.ar    1  LIG1        0.0427
     22 H           3.0910    1.8751    3.6446 H       1  LIG1        0.0636
     23 H           1.2928   -2.0047    4.0366 H       1  LIG1        0.0651
     24 C           3.2426   -0.3071    6.2596 C.ar    1  LIG1       -0.0433
     25 H           4.0935    1.6329    5.9102 H       1  LIG1        0.0619
     26 CL          2.1263   -2.7439    6.6604 Cl      1  LIG1       -0.0835
     27 H           3.6600   -0.4147    7.2556 H       1  LIG1        0.0632
@<TRIPOS>BOND
     1    14     8    1
     2    11     5    1
     3     8     5   ar
     4     8    12   ar
     5     3     7    1
     6     3     1    1
     7     5     2   ar
     8    19    12    1
     9    12     9   ar
    10     2     1    1
    11     2     6   ar
    12     1     4    2
    13     9     6   ar
    14     9    15    1
    15     6    10    1
    16    16    10    1
    17    10    13    1
    18    22    17    1
    19    13    17   ar
    20    13    18   ar
    21    23    18    1
    22    17    20   ar
    23    18    21   ar
    24    20    25    1
    25    20    24   ar
    26    21    24   ar
    27    21    26    1
    28    24    27    1
