@<TRIPOS>MOLECULE
zmat135.com
 27 28 0 0 0
SMALL
GASTEIGER
Energy = 0

@<TRIPOS>ATOM
      1 C           0.0000    0.0000    0.0000 C.2     1  LIG1        0.3386
      2 C           1.4641    0.0000    0.0000 C.ar    1  LIG1        0.0799
      3 O          -0.5499    0.0000   -1.2301 O.3     1  LIG1       -0.4771
      4 O          -0.7178    0.0061    0.9943 O.2     1  LIG1       -0.2451
      5 C           2.1555    0.1059   -1.2191 C.ar    1  LIG1       -0.0460
      6 C           2.1944   -0.0837    1.2215 C.ar    1  LIG1        0.0454
      7 H          -1.5119    0.0100   -1.0929 H       1  LIG1        0.2954
      8 C           3.5364    0.1421   -1.2678 C.ar    1  LIG1       -0.0609
      9 C           3.6018   -0.0219    1.1510 C.ar    1  LIG1       -0.0397
     10 N           1.5333   -0.1932    2.4165 N.pl3   1  LIG1       -0.3138
     11 H           1.5745    0.1641   -2.1335 H       1  LIG1        0.0626
     12 C           4.2510    0.0875   -0.0655 C.ar    1  LIG1       -0.0600
     13 C           2.0851   -0.4163    3.6852 C.ar    1  LIG1        0.0327
     14 H           4.0538    0.2239   -2.2187 H       1  LIG1        0.0618
     15 H           4.1800   -0.0378    2.0686 H       1  LIG1        0.0636
     16 H           0.5263   -0.0552    2.3546 H       1  LIG1        0.1522
     17 C           1.6338    0.3484    4.7673 C.ar    1  LIG1       -0.0405
     18 C           3.0339   -1.4232    3.9027 C.ar    1  LIG1       -0.0222
     19 H           5.3371    0.1402   -0.0771 H       1  LIG1        0.0618
     20 C           2.1244    0.1060    6.0460 C.ar    1  LIG1       -0.0586
     21 C           3.5271   -1.6290    5.1852 C.ar    1  LIG1        0.0427
     22 H           0.9020    1.1333    4.5952 H       1  LIG1        0.0636
     23 H           3.3630   -2.0546    3.0839 H       1  LIG1        0.0651
     24 C           3.0853   -0.8770    6.2703 C.ar    1  LIG1       -0.0433
     25 H           1.7663    0.7029    6.8806 H       1  LIG1        0.0619
     26 CL          4.7108   -2.8800    5.4398 Cl      1  LIG1       -0.0835
     27 H           3.4837   -1.0608    7.2627 H       1  LIG1        0.0632
@<TRIPOS>BOND
     1    14     8    1
     2    11     5    1
     3     8     5   ar
     4     8    12   ar
     5     3     7    1
     6     3     1    1
     7     5     2   ar
     8    19    12    1
     9    12     9   ar
    10     2     1    1
    11     2     6   ar
    12     1     4    2
    13     9     6   ar
    14     9    15    1
    15     6    10    1
    16    16    10    1
    17    10    13    1
    18    23    18    1
    19    13    18   ar
    20    13    17   ar
    21    18    21   ar
    22    22    17    1
    23    17    20   ar
    24    21    26    1
    25    21    24   ar
    26    20    24   ar
    27    20    25    1
    28    24    27    1
