@<TRIPOS>MOLECULE
zmat45.com
 27 28 0 0 0
SMALL
GASTEIGER
Energy = 0

@<TRIPOS>ATOM
      1 C           0.0000    0.0000    0.0000 C.2     1  LIG1        0.3386
      2 C           1.4645    0.0000    0.0000 C.ar    1  LIG1        0.0799
      3 O          -0.5499    0.0000   -1.2301 O.3     1  LIG1       -0.4771
      4 O          -0.7173   -0.0052    0.9942 O.2     1  LIG1       -0.2451
      5 C           2.1565   -0.1091   -1.2185 C.ar    1  LIG1       -0.0460
      6 C           2.1943    0.0876    1.2214 C.ar    1  LIG1        0.0454
      7 H          -1.5121   -0.0112   -1.0933 H       1  LIG1        0.2954
      8 C           3.5376   -0.1448   -1.2663 C.ar    1  LIG1       -0.0609
      9 C           3.6017    0.0253    1.1520 C.ar    1  LIG1       -0.0397
     10 N           1.5335    0.1957    2.4166 N.pl3   1  LIG1       -0.3138
     11 H           1.5761   -0.1706   -2.1330 H       1  LIG1        0.0626
     12 C           4.2516   -0.0872   -0.0639 C.ar    1  LIG1       -0.0600
     13 C           2.0790    0.4698    3.6773 C.ar    1  LIG1        0.0327
     14 H           4.0554   -0.2298   -2.2167 H       1  LIG1        0.0618
     15 H           4.1779    0.0401    2.0709 H       1  LIG1        0.0636
     16 H           0.5266    0.0574    2.3548 H       1  LIG1        0.1522
     17 C           3.0288    1.4797    3.8785 C.ar    1  LIG1       -0.0405
     18 C           1.5896   -0.2416    4.7795 C.ar    1  LIG1       -0.0222
     19 H           5.3377   -0.1421   -0.0750 H       1  LIG1        0.0618
     20 C           3.4948    1.7480    5.1608 C.ar    1  LIG1       -0.0586
     21 C           2.0551    0.0609    6.0537 C.ar    1  LIG1        0.0427
     22 H           3.3788    2.0665    3.0347 H       1  LIG1        0.0636
     23 H           0.8555   -1.0288    4.6360 H       1  LIG1        0.0651
     24 C           3.0154    1.0455    6.2646 C.ar    1  LIG1       -0.0433
     25 H           4.2303    2.5345    5.3086 H       1  LIG1        0.0619
     26 CL          1.4312   -0.8299    7.4119 Cl      1  LIG1       -0.0835
     27 H           3.3699    1.2602    7.2673 H       1  LIG1        0.0632
@<TRIPOS>BOND
     1    14     8    1
     2    11     5    1
     3     8     5   ar
     4     8    12   ar
     5     3     7    1
     6     3     1    1
     7     5     2   ar
     8    19    12    1
     9    12     9   ar
    10     2     1    1
    11     2     6   ar
    12     1     4    2
    13     9     6   ar
    14     9    15    1
    15     6    10    1
    16    16    10    1
    17    10    13    1
    18    22    17    1
    19    13    17   ar
    20    13    18   ar
    21    17    20   ar
    22    23    18    1
    23    18    21   ar
    24    20    25    1
    25    20    24   ar
    26    21    24   ar
    27    21    26    1
    28    24    27    1
