@<TRIPOS>MOLECULE
zmat130.com
 27 28 0 0 0
SMALL
GASTEIGER
Energy = 0

@<TRIPOS>ATOM
      1 C           0.0000    0.0000    0.0000 C.2     1  LIG1        0.3386
      2 C           1.4639    0.0000    0.0000 C.ar    1  LIG1        0.0799
      3 O          -0.5504    0.0000   -1.2300 O.3     1  LIG1       -0.4771
      4 O          -0.7177    0.0059    0.9943 O.2     1  LIG1       -0.2451
      5 C           2.1559    0.1046   -1.2190 C.ar    1  LIG1       -0.0460
      6 C           2.1938   -0.0831    1.2217 C.ar    1  LIG1        0.0454
      7 H          -1.5124    0.0101   -1.0923 H       1  LIG1        0.2954
      8 C           3.5369    0.1402   -1.2672 C.ar    1  LIG1       -0.0609
      9 C           3.6014   -0.0239    1.1518 C.ar    1  LIG1       -0.0397
     10 N           1.5338   -0.1973    2.4167 N.pl3   1  LIG1       -0.3138
     11 H           1.5753    0.1624   -2.1336 H       1  LIG1        0.0626
     12 C           4.2509    0.0844   -0.0647 C.ar    1  LIG1       -0.0600
     13 C           2.1006   -0.3727    3.6880 C.ar    1  LIG1        0.0327
     14 H           4.0547    0.2213   -2.2179 H       1  LIG1        0.0618
     15 H           4.1793   -0.0443    2.0697 H       1  LIG1        0.0636
     16 H           0.5270   -0.0568    2.3579 H       1  LIG1        0.1522
     17 C           1.7012    0.4605    4.7387 C.ar    1  LIG1       -0.0405
     18 C           3.0218   -1.3983    3.9335 C.ar    1  LIG1       -0.0222
     19 H           5.3372    0.1342   -0.0760 H       1  LIG1        0.0618
     20 C           2.2134    0.2642    6.0174 C.ar    1  LIG1       -0.0586
     21 C           3.5383   -1.5582    5.2133 C.ar    1  LIG1        0.0427
     22 H           0.9925    1.2607    4.5430 H       1  LIG1        0.0636
     23 H           3.3121   -2.0762    3.1375 H       1  LIG1        0.0651
     24 C           3.1454   -0.7395    6.2689 C.ar    1  LIG1       -0.0433
     25 H           1.8954    0.9131    6.8292 H       1  LIG1        0.0619
     26 CL          4.6867   -2.8337    5.5045 Cl      1  LIG1       -0.0835
     27 H           3.5598   -0.8885    7.2606 H       1  LIG1        0.0632
@<TRIPOS>BOND
     1    14     8    1
     2    11     5    1
     3     8     5   ar
     4     8    12   ar
     5     3     7    1
     6     3     1    1
     7     5     2   ar
     8    19    12    1
     9    12     9   ar
    10     2     1    1
    11     2     6   ar
    12     1     4    2
    13     9     6   ar
    14     9    15    1
    15     6    10    1
    16    16    10    1
    17    10    13    1
    18    23    18    1
    19    13    18   ar
    20    13    17   ar
    21    18    21   ar
    22    22    17    1
    23    17    20   ar
    24    21    26    1
    25    21    24   ar
    26    20    24   ar
    27    20    25    1
    28    24    27    1
