@<TRIPOS>MOLECULE
zmat80.com
 27 28 0 0 0
SMALL
GASTEIGER
Energy = 0

@<TRIPOS>ATOM
      1 C           0.0000    0.0000    0.0000 C.2     1  LIG1        0.3386
      2 C           1.4629    0.0000    0.0000 C.ar    1  LIG1        0.0799
      3 O          -0.5510    0.0000   -1.2304 O.3     1  LIG1       -0.4771
      4 O          -0.7178   -0.0106    0.9942 O.2     1  LIG1       -0.2451
      5 C           2.1601   -0.0367   -1.2203 C.ar    1  LIG1       -0.0460
      6 C           2.1885    0.0068    1.2264 C.ar    1  LIG1        0.0454
      7 H          -1.5128   -0.0067   -1.0918 H       1  LIG1        0.2954
      8 C           3.5412   -0.0763   -1.2643 C.ar    1  LIG1       -0.0609
      9 C           3.5965   -0.0521    1.1603 C.ar    1  LIG1       -0.0397
     10 N           1.5368    0.0812    2.4284 N.pl3   1  LIG1       -0.3138
     11 H           1.5834   -0.0388   -2.1393 H       1  LIG1        0.0626
     12 C           4.2510   -0.0909   -0.0576 C.ar    1  LIG1       -0.0600
     13 C           2.1554   -0.0860    3.6897 C.ar    1  LIG1        0.0327
     14 H           4.0630   -0.1046   -2.2161 H       1  LIG1        0.0618
     15 H           4.1673   -0.0713    2.0832 H       1  LIG1        0.0636
     16 H           0.5258   -0.0256    2.3692 H       1  LIG1        0.1522
     17 C           2.8686    0.9639    4.2742 C.ar    1  LIG1       -0.0405
     18 C           1.9936   -1.2879    4.3832 C.ar    1  LIG1       -0.0222
     19 H           5.3376   -0.1368   -0.0686 H       1  LIG1        0.0618
     20 C           3.4331    0.8012    5.5358 C.ar    1  LIG1       -0.0586
     21 C           2.5491   -1.4237    5.6521 C.ar    1  LIG1        0.0427
     22 H           2.9667    1.9015    3.7344 H       1  LIG1        0.0636
     23 H           1.4413   -2.1063    3.9314 H       1  LIG1        0.0651
     24 C           3.2752   -0.3917    6.2386 C.ar    1  LIG1       -0.0433
     25 H           3.9888    1.6179    5.9890 H       1  LIG1        0.0619
     26 CL          2.3355   -2.9186    6.5153 Cl      1  LIG1       -0.0835
     27 H           3.7022   -0.5201    7.2281 H       1  LIG1        0.0632
@<TRIPOS>BOND
     1    14     8    1
     2    11     5    1
     3     8     5   ar
     4     8    12   ar
     5     3     7    1
     6     3     1    1
     7     5     2   ar
     8    19    12    1
     9    12     9   ar
    10     2     1    1
    11     2     6   ar
    12     1     4    2
    13     9     6   ar
    14     9    15    1
    15     6    10    1
    16    16    10    1
    17    10    13    1
    18    13    17   ar
    19    13    18   ar
    20    22    17    1
    21    23    18    1
    22    17    20   ar
    23    18    21   ar
    24    20    25    1
    25    20    24   ar
    26    21    24   ar
    27    21    26    1
    28    24    27    1
