@<TRIPOS>MOLECULE
zmat25.com
 27 28 0 0 0
SMALL
GASTEIGER
Energy = 0

@<TRIPOS>ATOM
      1 C           0.0000    0.0000    0.0000 C.2     1  LIG1        0.3386
      2 C           1.4661    0.0000    0.0000 C.ar    1  LIG1        0.0799
      3 O          -0.5483    0.0000   -1.2302 O.3     1  LIG1       -0.4771
      4 O          -0.7173   -0.0065    0.9937 O.2     1  LIG1       -0.2451
      5 C           2.1553   -0.1158   -1.2192 C.ar    1  LIG1       -0.0460
      6 C           2.1982    0.0971    1.2186 C.ar    1  LIG1        0.0454
      7 H          -1.5107   -0.0126   -1.0952 H       1  LIG1        0.2954
      8 C           3.5367   -0.1495   -1.2695 C.ar    1  LIG1       -0.0609
      9 C           3.6046    0.0280    1.1470 C.ar    1  LIG1       -0.0397
     10 N           1.5388    0.1868    2.4191 N.pl3   1  LIG1       -0.3138
     11 H           1.5735   -0.1836   -2.1324 H       1  LIG1        0.0626
     12 C           4.2535   -0.0890   -0.0695 C.ar    1  LIG1       -0.0600
     13 C           2.0071    0.6796    3.6398 C.ar    1  LIG1        0.0327
     14 H           4.0522   -0.2391   -2.2208 H       1  LIG1        0.0618
     15 H           4.1811    0.0292    2.0656 H       1  LIG1        0.0636
     16 H           0.5320    0.0517    2.3423 H       1  LIG1        0.1522
     17 C           3.0443    1.6150    3.7555 C.ar    1  LIG1       -0.0405
     18 C           1.3560    0.2368    4.8008 C.ar    1  LIG1       -0.0222
     19 H           5.3392   -0.1504   -0.0821 H       1  LIG1        0.0618
     20 C           3.4225    2.0789    5.0113 C.ar    1  LIG1       -0.0586
     21 C           1.7439    0.7285    6.0393 C.ar    1  LIG1        0.0427
     22 H           3.5262    2.0093    2.8673 H       1  LIG1        0.0636
     23 H           0.5556   -0.4938    4.7293 H       1  LIG1        0.0651
     24 C           2.7838    1.6448    6.1699 C.ar    1  LIG1       -0.0433
     25 H           4.2234    2.8100    5.0874 H       1  LIG1        0.0619
     26 CL          0.9159    0.1671    7.4636 Cl      1  LIG1       -0.0835
     27 H           3.0753    2.0108    7.1487 H       1  LIG1        0.0632
@<TRIPOS>BOND
     1    14     8    1
     2    11     5    1
     3     8     5   ar
     4     8    12   ar
     5     3     7    1
     6     3     1    1
     7     5     2   ar
     8    19    12    1
     9    12     9   ar
    10     2     1    1
    11     2     6   ar
    12     1     4    2
    13     9     6   ar
    14     9    15    1
    15     6    10    1
    16    16    10    1
    17    10    13    1
    18    22    17    1
    19    13    17   ar
    20    13    18   ar
    21    17    20   ar
    22    23    18    1
    23    18    21   ar
    24    20    25    1
    25    20    24   ar
    26    21    24   ar
    27    21    26    1
    28    24    27    1
