@<TRIPOS>MOLECULE
zmat35.com
 27 28 0 0 0
SMALL
GASTEIGER
Energy = 0

@<TRIPOS>ATOM
      1 C           0.0000    0.0000    0.0000 C.2     1  LIG1        0.3386
      2 C           1.4652    0.0000    0.0000 C.ar    1  LIG1        0.0799
      3 O          -0.5493    0.0000   -1.2300 O.3     1  LIG1       -0.4771
      4 O          -0.7175   -0.0060    0.9940 O.2     1  LIG1       -0.2451
      5 C           2.1559   -0.1110   -1.2189 C.ar    1  LIG1       -0.0460
      6 C           2.1960    0.0909    1.2203 C.ar    1  LIG1        0.0454
      7 H          -1.5115   -0.0111   -1.0940 H       1  LIG1        0.2954
      8 C           3.5371   -0.1455   -1.2680 C.ar    1  LIG1       -0.0609
      9 C           3.6030    0.0256    1.1497 C.ar    1  LIG1       -0.0397
     10 N           1.5350    0.1869    2.4176 N.pl3   1  LIG1       -0.3138
     11 H           1.5748   -0.1746   -2.1328 H       1  LIG1        0.0626
     12 C           4.2524   -0.0879   -0.0665 C.ar    1  LIG1       -0.0600
     13 C           2.0439    0.5704    3.6627 C.ar    1  LIG1        0.0327
     14 H           4.0539   -0.2318   -2.2188 H       1  LIG1        0.0618
     15 H           4.1796    0.0325    2.0683 H       1  LIG1        0.0636
     16 H           0.5278    0.0531    2.3481 H       1  LIG1        0.1522
     17 C           3.0391    1.5454    3.8137 C.ar    1  LIG1       -0.0405
     18 C           1.4735   -0.0075    4.8049 C.ar    1  LIG1       -0.0222
     19 H           5.3383   -0.1461   -0.0783 H       1  LIG1        0.0618
     20 C           3.4632    1.9117    5.0865 C.ar    1  LIG1       -0.0586
     21 C           1.9018    0.3909    6.0646 C.ar    1  LIG1        0.0427
     22 H           3.4542    2.0375    2.9401 H       1  LIG1        0.0636
     23 H           0.7051   -0.7681    4.7029 H       1  LIG1        0.0651
     24 C           2.9040    1.3426    6.2284 C.ar    1  LIG1       -0.0433
     25 H           4.2324    2.6723    5.1932 H       1  LIG1        0.0619
     26 CL          1.1757   -0.3358    7.4691 Cl      1  LIG1       -0.0835
     27 H           3.2285    1.6335    7.2219 H       1  LIG1        0.0632
@<TRIPOS>BOND
     1    14     8    1
     2    11     5    1
     3     8     5   ar
     4     8    12   ar
     5     3     7    1
     6     3     1    1
     7     5     2   ar
     8    19    12    1
     9    12     9   ar
    10     2     1    1
    11     2     6   ar
    12     1     4    2
    13     9     6   ar
    14     9    15    1
    15     6    10    1
    16    16    10    1
    17    10    13    1
    18    22    17    1
    19    13    17   ar
    20    13    18   ar
    21    17    20   ar
    22    23    18    1
    23    18    21   ar
    24    20    25    1
    25    20    24   ar
    26    21    24   ar
    27    21    26    1
    28    24    27    1
