@<TRIPOS>MOLECULE
zmat10.com
 27 28 0 0 0
SMALL
GASTEIGER
Energy = 0

@<TRIPOS>ATOM
      1 C           0.0000    0.0000    0.0000 C.2     1  LIG1        0.3386
      2 C           1.4678    0.0000    0.0000 C.ar    1  LIG1        0.0799
      3 O          -0.5462    0.0000   -1.2305 O.3     1  LIG1       -0.4771
      4 O          -0.7168   -0.0057    0.9933 O.2     1  LIG1       -0.2451
      5 C           2.1541   -0.1478   -1.2168 C.ar    1  LIG1       -0.0460
      6 C           2.2020    0.1244    1.2139 C.ar    1  LIG1        0.0454
      7 H          -1.5090   -0.0131   -1.0976 H       1  LIG1        0.2954
      8 C           3.5358   -0.1884   -1.2681 C.ar    1  LIG1       -0.0609
      9 C           3.6065    0.0384    1.1428 C.ar    1  LIG1       -0.0397
     10 N           1.5450    0.2387    2.4180 N.pl3   1  LIG1       -0.3138
     11 H           1.5710   -0.2352   -2.1274 H       1  LIG1        0.0626
     12 C           4.2547   -0.1089   -0.0714 C.ar    1  LIG1       -0.0600
     13 C           1.9483    0.8974    3.5811 C.ar    1  LIG1        0.0327
     14 H           4.0489   -0.3039   -2.2178 H       1  LIG1        0.0618
     15 H           4.1823    0.0400    2.0616 H       1  LIG1        0.0636
     16 H           0.5411    0.0864    2.3348 H       1  LIG1        0.1522
     17 C           3.0540    1.7543    3.6691 C.ar    1  LIG1       -0.0405
     18 C           1.1690    0.6768    4.7287 C.ar    1  LIG1       -0.0222
     19 H           5.3395   -0.1841   -0.0830 H       1  LIG1        0.0618
     20 C           3.3660    2.3618    4.8819 C.ar    1  LIG1       -0.0586
     21 C           1.5006    1.3012    5.9214 C.ar    1  LIG1        0.0427
     22 H           3.6448    1.9845    2.7902 H       1  LIG1        0.0636
     23 H           0.3156    0.0061    4.6847 H       1  LIG1        0.0651
     24 C           2.6033    2.1455    6.0254 C.ar    1  LIG1       -0.0433
     25 H           4.2207    3.0317    4.9317 H       1  LIG1        0.0619
     26 CL          0.5156    1.0060    7.3260 Cl      1  LIG1       -0.0835
     27 H           2.8483    2.6192    6.9700 H       1  LIG1        0.0632
@<TRIPOS>BOND
     1    14     8    1
     2    11     5    1
     3     8     5   ar
     4     8    12   ar
     5     3     7    1
     6     3     1    1
     7     5     2   ar
     8    19    12    1
     9    12     9   ar
    10     2     1    1
    11     2     6   ar
    12     1     4    2
    13     9     6   ar
    14     9    15    1
    15     6    10    1
    16    16    10    1
    17    10    13    1
    18    22    17    1
    19    13    17   ar
    20    13    18   ar
    21    17    20   ar
    22    23    18    1
    23    18    21   ar
    24    20    25    1
    25    20    24   ar
    26    21    24   ar
    27    21    26    1
    28    24    27    1
