@<TRIPOS>MOLECULE
zmat125.com
 27 28 0 0 0
SMALL
GASTEIGER
Energy = 0

@<TRIPOS>ATOM
      1 C           0.0000    0.0000    0.0000 C.2     1  LIG1        0.3386
      2 C           1.4636    0.0000    0.0000 C.ar    1  LIG1        0.0799
      3 O          -0.5506    0.0000   -1.2301 O.3     1  LIG1       -0.4771
      4 O          -0.7176    0.0055    0.9944 O.2     1  LIG1       -0.2451
      5 C           2.1562    0.1057   -1.2186 C.ar    1  LIG1       -0.0460
      6 C           2.1931   -0.0840    1.2218 C.ar    1  LIG1        0.0454
      7 H          -1.5125    0.0103   -1.0921 H       1  LIG1        0.2954
      8 C           3.5372    0.1419   -1.2663 C.ar    1  LIG1       -0.0609
      9 C           3.6008   -0.0260    1.1526 C.ar    1  LIG1       -0.0397
     10 N           1.5341   -0.2065    2.4165 N.pl3   1  LIG1       -0.3138
     11 H           1.5758    0.1643   -2.1335 H       1  LIG1        0.0626
     12 C           4.2508    0.0836   -0.0635 C.ar    1  LIG1       -0.0600
     13 C           2.1145   -0.3350    3.6893 C.ar    1  LIG1        0.0327
     14 H           4.0554    0.2241   -2.2166 H       1  LIG1        0.0618
     15 H           4.1781   -0.0517    2.0707 H       1  LIG1        0.0636
     16 H           0.5277   -0.0633    2.3607 H       1  LIG1        0.1522
     17 C           1.7643    0.5620    4.7036 C.ar    1  LIG1       -0.0405
     18 C           3.0085   -1.3759    3.9662 C.ar    1  LIG1       -0.0222
     19 H           5.3372    0.1316   -0.0746 H       1  LIG1        0.0618
     20 C           2.2960    0.4109    5.9810 C.ar    1  LIG1       -0.0586
     21 C           3.5461   -1.4913    5.2421 C.ar    1  LIG1        0.0427
     22 H           1.0780    1.3747    4.4816 H       1  LIG1        0.0636
     23 H           3.2626   -2.0972    3.1961 H       1  LIG1        0.0651
     24 C           3.1997   -0.6103    6.2633 C.ar    1  LIG1       -0.0433
     25 H           2.0159    1.1082    6.7661 H       1  LIG1        0.0619
     26 CL          4.6601   -2.7869    5.5738 Cl      1  LIG1       -0.0835
     27 H           3.6285   -0.7253    7.2535 H       1  LIG1        0.0632
@<TRIPOS>BOND
     1    14     8    1
     2    11     5    1
     3     8     5   ar
     4     8    12   ar
     5     3     7    1
     6     3     1    1
     7     5     2   ar
     8    19    12    1
     9    12     9   ar
    10     2     1    1
    11     2     6   ar
    12     1     4    2
    13     9     6   ar
    14     9    15    1
    15     6    10    1
    16    16    10    1
    17    10    13    1
    18    23    18    1
    19    13    18   ar
    20    13    17   ar
    21    18    21   ar
    22    22    17    1
    23    17    20   ar
    24    21    26    1
    25    21    24   ar
    26    20    24   ar
    27    20    25    1
    28    24    27    1
