@<TRIPOS>MOLECULE
zmat120.com
 27 28 0 0 0
SMALL
GASTEIGER
Energy = 0

@<TRIPOS>ATOM
      1 C           0.0000    0.0000    0.0000 C.2     1  LIG1        0.3386
      2 C           1.4634    0.0000    0.0000 C.ar    1  LIG1        0.0799
      3 O          -0.5509    0.0000   -1.2301 O.3     1  LIG1       -0.4771
      4 O          -0.7175    0.0055    0.9945 O.2     1  LIG1       -0.2451
      5 C           2.1566    0.1010   -1.2187 C.ar    1  LIG1       -0.0460
      6 C           2.1924   -0.0799    1.2223 C.ar    1  LIG1        0.0454
      7 H          -1.5127    0.0095   -1.0918 H       1  LIG1        0.2954
      8 C           3.5377    0.1366   -1.2659 C.ar    1  LIG1       -0.0609
      9 C           3.6003   -0.0237    1.1535 C.ar    1  LIG1       -0.0397
     10 N           1.5349   -0.2039    2.4174 N.pl3   1  LIG1       -0.3138
     11 H           1.5766    0.1564   -2.1340 H       1  LIG1        0.0626
     12 C           4.2508    0.0812   -0.0627 C.ar    1  LIG1       -0.0600
     13 C           2.1278   -0.2835    3.6908 C.ar    1  LIG1        0.0327
     14 H           4.0563    0.2153   -2.2163 H       1  LIG1        0.0618
     15 H           4.1769   -0.0504    2.0721 H       1  LIG1        0.0636
     16 H           0.5282   -0.0618    2.3634 H       1  LIG1        0.1522
     17 C           1.8302    0.6793    4.6598 C.ar    1  LIG1       -0.0405
     18 C           2.9898   -1.3395    4.0065 C.ar    1  LIG1       -0.0222
     19 H           5.3372    0.1269   -0.0737 H       1  LIG1        0.0618
     20 C           2.3802    0.5764    5.9346 C.ar    1  LIG1       -0.0586
     21 C           3.5475   -1.4078    5.2773 C.ar    1  LIG1        0.0427
     22 H           1.1696    1.5037    4.4055 H       1  LIG1        0.0636
     23 H           3.2058   -2.1057    3.2685 H       1  LIG1        0.0651
     24 C           3.2511   -0.4617    6.2552 C.ar    1  LIG1       -0.0433
     25 H           2.1409    1.3240    6.6863 H       1  LIG1        0.0619
     26 CL          4.6222   -2.7226    5.6585 Cl      1  LIG1       -0.0835
     27 H           3.6936   -0.5402    7.2430 H       1  LIG1        0.0632
@<TRIPOS>BOND
     1    14     8    1
     2    11     5    1
     3     8     5   ar
     4     8    12   ar
     5     3     7    1
     6     3     1    1
     7     5     2   ar
     8    19    12    1
     9    12     9   ar
    10     2     1    1
    11     2     6   ar
    12     1     4    2
    13     9     6   ar
    14     9    15    1
    15     6    10    1
    16    16    10    1
    17    10    13    1
    18    23    18    1
    19    13    18   ar
    20    13    17   ar
    21    18    21   ar
    22    22    17    1
    23    17    20   ar
    24    21    26    1
    25    21    24   ar
    26    20    24   ar
    27    20    25    1
    28    24    27    1
