@<TRIPOS>MOLECULE
zmat175.com
 27 28 0 0 0
SMALL
GASTEIGER
Energy = 0

@<TRIPOS>ATOM
      1 C           0.0000    0.0000    0.0000 C.2     1  LIG1        0.3386
      2 C           1.4677    0.0000    0.0000 C.ar    1  LIG1        0.0799
      3 O          -0.5462    0.0000   -1.2304 O.3     1  LIG1       -0.4771
      4 O          -0.7167    0.0051    0.9936 O.2     1  LIG1       -0.2451
      5 C           2.1540    0.1557   -1.2158 C.ar    1  LIG1       -0.0460
      6 C           2.2022   -0.1392    1.2118 C.ar    1  LIG1        0.0454
      7 H          -1.5089    0.0143   -1.0976 H       1  LIG1        0.2954
      8 C           3.5358    0.1896   -1.2673 C.ar    1  LIG1       -0.0609
      9 C           3.6069   -0.0632    1.1408 C.ar    1  LIG1       -0.0397
     10 N           1.5466   -0.2668    2.4161 N.pl3   1  LIG1       -0.3138
     11 H           1.5710    0.2539   -2.1254 H       1  LIG1        0.0626
     12 C           4.2556    0.0920   -0.0724 C.ar    1  LIG1       -0.0600
     13 C           1.9362   -0.9697    3.5573 C.ar    1  LIG1        0.0327
     14 H           4.0489    0.3098   -2.2165 H       1  LIG1        0.0618
     15 H           4.1840   -0.0796    2.0588 H       1  LIG1        0.0636
     16 H           0.5435   -0.1087    2.3362 H       1  LIG1        0.1522
     17 C           1.1215   -0.8438    4.6948 C.ar    1  LIG1       -0.0405
     18 C           3.0286   -1.8464    3.6037 C.ar    1  LIG1       -0.0222
     19 H           5.3409    0.1562   -0.0846 H       1  LIG1        0.0618
     20 C           1.4147   -1.5478    5.8534 C.ar    1  LIG1       -0.0586
     21 C           3.3036   -2.5314    4.7827 C.ar    1  LIG1        0.0427
     22 H           0.2622   -0.1784    4.6610 H       1  LIG1        0.0636
     23 H           3.6384   -2.0345    2.7287 H       1  LIG1        0.0651
     24 C           2.5195   -2.3960    5.9218 C.ar    1  LIG1       -0.0433
     25 H           0.7751   -1.4319    6.7244 H       1  LIG1        0.0619
     26 CL          4.6713   -3.6107    4.8136 Cl      1  LIG1       -0.0835
     27 H           2.7618   -2.9411    6.8278 H       1  LIG1        0.0632
@<TRIPOS>BOND
     1    14     8    1
     2    11     5    1
     3     8     5   ar
     4     8    12   ar
     5     3     7    1
     6     3     1    1
     7     5     2   ar
     8    19    12    1
     9    12     9   ar
    10     2     1    1
    11     2     6   ar
    12     1     4    2
    13     9     6   ar
    14     9    15    1
    15     6    10    1
    16    16    10    1
    17    10    13    1
    18    23    18    1
    19    13    18   ar
    20    13    17   ar
    21    18    21   ar
    22    22    17    1
    23    17    20   ar
    24    21    26    1
    25    21    24   ar
    26    20    24   ar
    27    20    25    1
    28    24    27    1
