@<TRIPOS>MOLECULE
zmat85.com
 27 28 0 0 0
SMALL
GASTEIGER
Energy = 0

@<TRIPOS>ATOM
      1 C           0.0000    0.0000    0.0000 C.2     1  LIG1        0.3386
      2 C           1.4626    0.0000    0.0000 C.ar    1  LIG1        0.0799
      3 O          -0.5513    0.0000   -1.2304 O.3     1  LIG1       -0.4771
      4 O          -0.7177   -0.0092    0.9944 O.2     1  LIG1       -0.2451
      5 C           2.1610   -0.0299   -1.2198 C.ar    1  LIG1       -0.0460
      6 C           2.1872    0.0024    1.2270 C.ar    1  LIG1        0.0454
      7 H          -1.5131   -0.0060   -1.0916 H       1  LIG1        0.2954
      8 C           3.5423   -0.0658   -1.2627 C.ar    1  LIG1       -0.0609
      9 C           3.5958   -0.0497    1.1621 C.ar    1  LIG1       -0.0397
     10 N           1.5375    0.0687    2.4294 N.pl3   1  LIG1       -0.3138
     11 H           1.5851   -0.0294   -2.1393 H       1  LIG1        0.0626
     12 C           4.2513   -0.0814   -0.0553 C.ar    1  LIG1       -0.0600
     13 C           2.1655   -0.1083    3.6867 C.ar    1  LIG1        0.0327
     14 H           4.0649   -0.0890   -2.2140 H       1  LIG1        0.0618
     15 H           4.1655   -0.0668    2.0860 H       1  LIG1        0.0636
     16 H           0.5248   -0.0232    2.3738 H       1  LIG1        0.1522
     17 C           2.7923    0.9673    4.3197 C.ar    1  LIG1       -0.0405
     18 C           2.1093   -1.3527    4.3188 C.ar    1  LIG1       -0.0222
     19 H           5.3382   -0.1215   -0.0659 H       1  LIG1        0.0618
     20 C           3.3712    0.7923    5.5737 C.ar    1  LIG1       -0.0586
     21 C           2.6801   -1.5037    5.5790 C.ar    1  LIG1        0.0427
     22 H           2.8136    1.9328    3.8225 H       1  LIG1        0.0636
     23 H           1.6250   -2.1905    3.8266 H       1  LIG1        0.0651
     24 C           3.3171   -0.4427    6.2161 C.ar    1  LIG1       -0.0433
     25 H           3.8590    1.6291    6.0663 H       1  LIG1        0.0619
     26 CL          2.5989   -3.0518    6.3679 Cl      1  LIG1       -0.0835
     27 H           3.7571   -0.5831    7.1984 H       1  LIG1        0.0632
@<TRIPOS>BOND
     1    14     8    1
     2    11     5    1
     3     8     5   ar
     4     8    12   ar
     5     3     7    1
     6     3     1    1
     7     5     2   ar
     8    19    12    1
     9    12     9   ar
    10     2     1    1
    11     2     6   ar
    12     1     4    2
    13     9     6   ar
    14     9    15    1
    15     6    10    1
    16    16    10    1
    17    10    13    1
    18    13    18   ar
    19    13    17   ar
    20    22    17    1
    21    23    18    1
    22    18    21   ar
    23    17    20   ar
    24    20    25    1
    25    20    24   ar
    26    21    24   ar
    27    21    26    1
    28    24    27    1
