@<TRIPOS>MOLECULE
zmat155.com
 27 28 0 0 0
SMALL
GASTEIGER
Energy = 0

@<TRIPOS>ATOM
      1 C           0.0000    0.0000    0.0000 C.2     1  LIG1        0.3386
      2 C           1.4656    0.0000    0.0000 C.ar    1  LIG1        0.0799
      3 O          -0.5483    0.0000   -1.2301 O.3     1  LIG1       -0.4771
      4 O          -0.7177    0.0074    0.9938 O.2     1  LIG1       -0.2451
      5 C           2.1546    0.1118   -1.2197 C.ar    1  LIG1       -0.0460
      6 C           2.1979   -0.0916    1.2192 C.ar    1  LIG1        0.0454
      7 H          -1.5107    0.0112   -1.0948 H       1  LIG1        0.2954
      8 C           3.5359    0.1459   -1.2702 C.ar    1  LIG1       -0.0609
      9 C           3.6044   -0.0237    1.1472 C.ar    1  LIG1       -0.0397
     10 N           1.5369   -0.1836    2.4184 N.pl3   1  LIG1       -0.3138
     11 H           1.5726    0.1754   -2.1330 H       1  LIG1        0.0626
     12 C           4.2527    0.0898   -0.0700 C.ar    1  LIG1       -0.0600
     13 C           2.0182   -0.6221    3.6540 C.ar    1  LIG1        0.0327
     14 H           4.0514    0.2315   -2.2219 H       1  LIG1        0.0618
     15 H           4.1829   -0.0252    2.0645 H       1  LIG1        0.0636
     16 H           0.5299   -0.0497    2.3439 H       1  LIG1        0.1522
     17 C           1.3813   -0.1507    4.8114 C.ar    1  LIG1       -0.0405
     18 C           3.0468   -1.5655    3.7794 C.ar    1  LIG1       -0.0222
     19 H           5.3384    0.1489   -0.0827 H       1  LIG1        0.0618
     20 C           1.7789   -0.6004    6.0639 C.ar    1  LIG1       -0.0586
     21 C           3.4374   -1.9834    5.0462 C.ar    1  LIG1        0.0427
     22 H           0.5790    0.5766    4.7168 H       1  LIG1        0.0636
     23 H           3.5149   -1.9991    2.9029 H       1  LIG1        0.0651
     24 C           2.8223   -1.5140    6.2021 C.ar    1  LIG1       -0.0433
     25 H           1.2773   -0.2239    6.9515 H       1  LIG1        0.0619
     26 CL          4.7224   -3.1519    5.1793 Cl      1  LIG1       -0.0835
     27 H           3.1483   -1.8581    7.1779 H       1  LIG1        0.0632
@<TRIPOS>BOND
     1    14     8    1
     2    11     5    1
     3     8     5   ar
     4     8    12   ar
     5     3     7    1
     6     3     1    1
     7     5     2   ar
     8    19    12    1
     9    12     9   ar
    10     2     1    1
    11     2     6   ar
    12     1     4    2
    13     9     6   ar
    14     9    15    1
    15     6    10    1
    16    16    10    1
    17    10    13    1
    18    23    18    1
    19    13    18   ar
    20    13    17   ar
    21    18    21   ar
    22    22    17    1
    23    17    20   ar
    24    21    26    1
    25    21    24   ar
    26    20    24   ar
    27    20    25    1
    28    24    27    1
