@<TRIPOS>MOLECULE
zmat110.com
 27 28 0 0 0
SMALL
GASTEIGER
Energy = 0

@<TRIPOS>ATOM
      1 C           0.0000    0.0000    0.0000 C.2     1  LIG1        0.3386
      2 C           1.4632    0.0000    0.0000 C.ar    1  LIG1        0.0799
      3 O          -0.5508    0.0000   -1.2303 O.3     1  LIG1       -0.4771
      4 O          -0.7184    0.0114    0.9939 O.2     1  LIG1       -0.2451
      5 C           2.1577    0.0490   -1.2213 C.ar    1  LIG1       -0.0460
      6 C           2.1911   -0.0167    1.2254 C.ar    1  LIG1        0.0454
      7 H          -1.5127    0.0063   -1.0919 H       1  LIG1        0.2954
      8 C           3.5385    0.0924   -1.2682 C.ar    1  LIG1       -0.0609
      9 C           3.5985    0.0494    1.1562 C.ar    1  LIG1       -0.0397
     10 N           1.5358   -0.1001    2.4256 N.pl3   1  LIG1       -0.3138
     11 H           1.5789    0.0578   -2.1390 H       1  LIG1        0.0626
     12 C           4.2502    0.1006   -0.0627 C.ar    1  LIG1       -0.0600
     13 C           2.1375    0.0182    3.6964 C.ar    1  LIG1        0.0327
     14 H           4.0581    0.1291   -2.2206 H       1  LIG1        0.0618
     15 H           4.1735    0.0669    2.0761 H       1  LIG1        0.0636
     16 H           0.5259    0.0144    2.3617 H       1  LIG1        0.1522
     17 C           1.8892    1.1431    4.4873 C.ar    1  LIG1       -0.0405
     18 C           2.9661   -1.0000    4.1780 C.ar    1  LIG1       -0.0222
     19 H           5.3364    0.1522   -0.0749 H       1  LIG1        0.0618
     20 C           2.4538    1.2386    5.7566 C.ar    1  LIG1       -0.0586
     21 C           3.5393   -0.8732    5.4381 C.ar    1  LIG1        0.0427
     22 H           1.2545    1.9356    4.1005 H       1  LIG1        0.0636
     23 H           3.1450   -1.8847    3.5750 H       1  LIG1        0.0651
     24 C           3.2899    0.2366    6.2418 C.ar    1  LIG1       -0.0433
     25 H           2.2529    2.1111    6.3724 H       1  LIG1        0.0619
     26 CL          4.5728   -2.1418    6.0297 Cl      1  LIG1       -0.0835
     27 H           3.7425    0.3098    7.2255 H       1  LIG1        0.0632
@<TRIPOS>BOND
     1    14     8    1
     2    11     5    1
     3     8     5   ar
     4     8    12   ar
     5     3     7    1
     6     3     1    1
     7     5     2   ar
     8    19    12    1
     9    12     9   ar
    10     2     1    1
    11     2     6   ar
    12     1     4    2
    13     9     6   ar
    14     9    15    1
    15     6    10    1
    16    16    10    1
    17    10    13    1
    18    23    18    1
    19    13    18   ar
    20    13    17   ar
    21    22    17    1
    22    18    21   ar
    23    17    20   ar
    24    21    26    1
    25    21    24   ar
    26    20    24   ar
    27    20    25    1
    28    24    27    1
