@<TRIPOS>MOLECULE
zmat100.com
 27 28 0 0 0
SMALL
GASTEIGER
Energy = 0

@<TRIPOS>ATOM
      1 C           0.0000    0.0000    0.0000 C.2     1  LIG1        0.3386
      2 C           1.4627    0.0000    0.0000 C.ar    1  LIG1        0.0799
      3 O          -0.5511    0.0000   -1.2304 O.3     1  LIG1       -0.4771
      4 O          -0.7183    0.0106    0.9941 O.2     1  LIG1       -0.2451
      5 C           2.1599    0.0345   -1.2204 C.ar    1  LIG1       -0.0460
      6 C           2.1884   -0.0067    1.2266 C.ar    1  LIG1        0.0454
      7 H          -1.5129    0.0047   -1.0917 H       1  LIG1        0.2954
      8 C           3.5410    0.0719   -1.2646 C.ar    1  LIG1       -0.0609
      9 C           3.5967    0.0490    1.1602 C.ar    1  LIG1       -0.0397
     10 N           1.5367   -0.0784    2.4283 N.pl3   1  LIG1       -0.3138
     11 H           1.5831    0.0363   -2.1393 H       1  LIG1        0.0626
     12 C           4.2509    0.0853   -0.0579 C.ar    1  LIG1       -0.0600
     13 C           2.1566    0.0946    3.6887 C.ar    1  LIG1        0.0327
     14 H           4.0627    0.0977   -2.2164 H       1  LIG1        0.0618
     15 H           4.1684    0.0648    2.0825 H       1  LIG1        0.0636
     16 H           0.5249    0.0210    2.3690 H       1  LIG1        0.1522
     17 C           2.0602    1.3146    4.3616 C.ar    1  LIG1       -0.0405
     18 C           2.8569   -0.9668    4.2680 C.ar    1  LIG1       -0.0222
     19 H           5.3375    0.1270   -0.0690 H       1  LIG1        0.0618
     20 C           2.6468    1.4637    5.6161 C.ar    1  LIG1       -0.0586
     21 C           3.4522   -0.7919    5.5125 C.ar    1  LIG1        0.0427
     22 H           1.5245    2.1373    3.8961 H       1  LIG1        0.0636
     23 H           2.9226   -1.9179    3.7489 H       1  LIG1        0.0651
     24 C           3.3519    0.4148    6.2005 C.ar    1  LIG1       -0.0433
     25 H           2.5644    2.4106    6.1428 H       1  LIG1        0.0619
     26 CL          4.3246   -2.1150    6.2297 Cl      1  LIG1       -0.0835
     27 H           3.8182    0.5262    7.1743 H       1  LIG1        0.0632
@<TRIPOS>BOND
     1    14     8    1
     2    11     5    1
     3     8     5   ar
     4     8    12   ar
     5     3     7    1
     6     3     1    1
     7     5     2   ar
     8    19    12    1
     9    12     9   ar
    10     2     1    1
    11     2     6   ar
    12     1     4    2
    13     9     6   ar
    14     9    15    1
    15     6    10    1
    16    16    10    1
    17    10    13    1
    18    13    18   ar
    19    13    17   ar
    20    23    18    1
    21    22    17    1
    22    18    21   ar
    23    17    20   ar
    24    21    24   ar
    25    21    26    1
    26    20    25    1
    27    20    24   ar
    28    24    27    1
