@<TRIPOS>MOLECULE
zmat170.com
 27 28 0 0 0
SMALL
GASTEIGER
Energy = 0

@<TRIPOS>ATOM
      1 C           0.0000    0.0000    0.0000 C.2     1  LIG1        0.3386
      2 C           1.4671    0.0000    0.0000 C.ar    1  LIG1        0.0799
      3 O          -0.5468    0.0000   -1.2303 O.3     1  LIG1       -0.4771
      4 O          -0.7172    0.0061    0.9935 O.2     1  LIG1       -0.2451
      5 C           2.1544    0.1387   -1.2175 C.ar    1  LIG1       -0.0460
      6 C           2.2008   -0.1236    1.2144 C.ar    1  LIG1        0.0454
      7 H          -1.5095    0.0131   -1.0968 H       1  LIG1        0.2954
      8 C           3.5361    0.1700   -1.2688 C.ar    1  LIG1       -0.0609
      9 C           3.6062   -0.0530    1.1428 C.ar    1  LIG1       -0.0397
     10 N           1.5433   -0.2336    2.4178 N.pl3   1  LIG1       -0.3138
     11 H           1.5720    0.2255   -2.1286 H       1  LIG1        0.0626
     12 C           4.2550    0.0858   -0.0721 C.ar    1  LIG1       -0.0600
     13 C           1.9558   -0.8684    3.5906 C.ar    1  LIG1        0.0327
     14 H           4.0501    0.2768   -2.2191 H       1  LIG1        0.0618
     15 H           4.1837   -0.0635    2.0606 H       1  LIG1        0.0636
     16 H           0.5390   -0.0832    2.3375 H       1  LIG1        0.1522
     17 C           1.1858   -0.6487    4.7443 C.ar    1  LIG1       -0.0405
     18 C           3.0295   -1.7668    3.6555 C.ar    1  LIG1       -0.0222
     19 H           5.3406    0.1464   -0.0848 H       1  LIG1        0.0618
     20 C           1.5027   -1.2870    5.9348 C.ar    1  LIG1       -0.0586
     21 C           3.3310   -2.3823    4.8656 C.ar    1  LIG1        0.0427
     22 H           0.3431    0.0366    4.6969 H       1  LIG1        0.0636
     23 H           3.6025   -2.0228    2.7725 H       1  LIG1        0.0651
     24 C           2.5897   -2.1561    6.0193 C.ar    1  LIG1       -0.0433
     25 H           0.8979   -1.1001    6.8182 H       1  LIG1        0.0619
     26 CL          4.6741   -3.4910    4.9202 Cl      1  LIG1       -0.0835
     27 H           2.8513   -2.6489    6.9495 H       1  LIG1        0.0632
@<TRIPOS>BOND
     1    14     8    1
     2    11     5    1
     3     8     5   ar
     4     8    12   ar
     5     3     7    1
     6     3     1    1
     7     5     2   ar
     8    19    12    1
     9    12     9   ar
    10     2     1    1
    11     2     6   ar
    12     1     4    2
    13     9     6   ar
    14     9    15    1
    15     6    10    1
    16    16    10    1
    17    10    13    1
    18    23    18    1
    19    13    18   ar
    20    13    17   ar
    21    18    21   ar
    22    22    17    1
    23    17    20   ar
    24    21    26    1
    25    21    24   ar
    26    20    24   ar
    27    20    25    1
    28    24    27    1
