@<TRIPOS>MOLECULE
zmat115.com
 27 28 0 0 0
SMALL
GASTEIGER
Energy = 0

@<TRIPOS>ATOM
      1 C           0.0000    0.0000    0.0000 C.2     1  LIG1        0.3386
      2 C           1.4633    0.0000    0.0000 C.ar    1  LIG1        0.0799
      3 O          -0.5510    0.0000   -1.2302 O.3     1  LIG1       -0.4771
      4 O          -0.7175    0.0053    0.9946 O.2     1  LIG1       -0.2451
      5 C           2.1573    0.0978   -1.2185 C.ar    1  LIG1       -0.0460
      6 C           2.1916   -0.0772    1.2227 C.ar    1  LIG1        0.0454
      7 H          -1.5128    0.0091   -1.0918 H       1  LIG1        0.2954
      8 C           3.5383    0.1328   -1.2650 C.ar    1  LIG1       -0.0609
      9 C           3.5996   -0.0227    1.1548 C.ar    1  LIG1       -0.0397
     10 N           1.5354   -0.2038    2.4182 N.pl3   1  LIG1       -0.3138
     11 H           1.5778    0.1511   -2.1343 H       1  LIG1        0.0626
     12 C           4.2509    0.0789   -0.0613 C.ar    1  LIG1       -0.0600
     13 C           2.1389   -0.2393    3.6910 C.ar    1  LIG1        0.0327
     14 H           4.0575    0.2094   -2.2153 H       1  LIG1        0.0618
     15 H           4.1754   -0.0514    2.0739 H       1  LIG1        0.0636
     16 H           0.5285   -0.0631    2.3659 H       1  LIG1        0.1522
     17 C           1.8962    0.7841    4.6112 C.ar    1  LIG1       -0.0405
     18 C           2.9635   -1.3114    4.0476 C.ar    1  LIG1       -0.0222
     19 H           5.3374    0.1223   -0.0720 H       1  LIG1        0.0618
     20 C           2.4615    0.7240    5.8824 C.ar    1  LIG1       -0.0586
     21 C           3.5379   -1.3383    5.3128 C.ar    1  LIG1        0.0427
     22 H           1.2653    1.6205    4.3229 H       1  LIG1        0.0636
     23 H           3.1390   -2.1193    3.3442 H       1  LIG1        0.0651
     24 C           3.2939   -0.3320    6.2441 C.ar    1  LIG1       -0.0433
     25 H           2.2644    1.5178    6.5981 H       1  LIG1        0.0619
     26 CL          4.5661   -2.6736    5.7466 Cl      1  LIG1       -0.0835
     27 H           3.7475   -0.3783    7.2289 H       1  LIG1        0.0632
@<TRIPOS>BOND
     1    14     8    1
     2    11     5    1
     3     8     5   ar
     4     8    12   ar
     5     3     7    1
     6     3     1    1
     7     5     2   ar
     8    19    12    1
     9    12     9   ar
    10     2     1    1
    11     2     6   ar
    12     1     4    2
    13     9     6   ar
    14     9    15    1
    15     6    10    1
    16    16    10    1
    17    10    13    1
    18    23    18    1
    19    13    18   ar
    20    13    17   ar
    21    18    21   ar
    22    22    17    1
    23    17    20   ar
    24    21    26    1
    25    21    24   ar
    26    20    24   ar
    27    20    25    1
    28    24    27    1
