@<TRIPOS>MOLECULE
zmat40.com
 27 28 0 0 0
SMALL
GASTEIGER
Energy = 0

@<TRIPOS>ATOM
      1 C           0.0000    0.0000    0.0000 C.2     1  LIG1        0.3386
      2 C           1.4648    0.0000    0.0000 C.ar    1  LIG1        0.0799
      3 O          -0.5493    0.0000   -1.2301 O.3     1  LIG1       -0.4771
      4 O          -0.7174   -0.0054    0.9942 O.2     1  LIG1       -0.2451
      5 C           2.1561   -0.1113   -1.2186 C.ar    1  LIG1       -0.0460
      6 C           2.1950    0.0905    1.2208 C.ar    1  LIG1        0.0454
      7 H          -1.5115   -0.0116   -1.0938 H       1  LIG1        0.2954
      8 C           3.5373   -0.1462   -1.2670 C.ar    1  LIG1       -0.0609
      9 C           3.6023    0.0272    1.1509 C.ar    1  LIG1       -0.0397
     10 N           1.5339    0.1932    2.4168 N.pl3   1  LIG1       -0.3138
     11 H           1.5753   -0.1750   -2.1327 H       1  LIG1        0.0626
     12 C           4.2520   -0.0870   -0.0650 C.ar    1  LIG1       -0.0600
     13 C           2.0615    0.5250    3.6699 C.ar    1  LIG1        0.0327
     14 H           4.0546   -0.2328   -2.2175 H       1  LIG1        0.0618
     15 H           4.1788    0.0395    2.0696 H       1  LIG1        0.0636
     16 H           0.5269    0.0567    2.3514 H       1  LIG1        0.1522
     17 C           3.0333    1.5196    3.8420 C.ar    1  LIG1       -0.0405
     18 C           1.5319   -0.1177    4.7963 C.ar    1  LIG1       -0.0222
     19 H           5.3379   -0.1432   -0.0764 H       1  LIG1        0.0618
     20 C           3.4782    1.8407    5.1198 C.ar    1  LIG1       -0.0586
     21 C           1.9784    0.2368    6.0633 C.ar    1  LIG1        0.0427
     22 H           3.4155    2.0576    2.9802 H       1  LIG1        0.0636
     23 H           0.7811   -0.8932    4.6766 H       1  LIG1        0.0651
     24 C           2.9591    1.2070    6.2467 C.ar    1  LIG1       -0.0433
     25 H           4.2300    2.6159    5.2439 H       1  LIG1        0.0619
     26 CL          1.3039   -0.5695    7.4500 Cl      1  LIG1       -0.0835
     27 H           3.2984    1.4629    7.2450 H       1  LIG1        0.0632
@<TRIPOS>BOND
     1    14     8    1
     2    11     5    1
     3     8     5   ar
     4     8    12   ar
     5     3     7    1
     6     3     1    1
     7     5     2   ar
     8    19    12    1
     9    12     9   ar
    10     2     1    1
    11     2     6   ar
    12     1     4    2
    13     9     6   ar
    14     9    15    1
    15     6    10    1
    16    16    10    1
    17    10    13    1
    18    22    17    1
    19    13    17   ar
    20    13    18   ar
    21    17    20   ar
    22    23    18    1
    23    18    21   ar
    24    20    25    1
    25    20    24   ar
    26    21    24   ar
    27    21    26    1
    28    24    27    1
