@<TRIPOS>MOLECULE
zmat15.com
 27 28 0 0 0
SMALL
GASTEIGER
Energy = 0

@<TRIPOS>ATOM
      1 C           0.0000    0.0000    0.0000 C.2     1  LIG1        0.3386
      2 C           1.4672    0.0000    0.0000 C.ar    1  LIG1        0.0799
      3 O          -0.5470    0.0000   -1.2304 O.3     1  LIG1       -0.4771
      4 O          -0.7171   -0.0071    0.9934 O.2     1  LIG1       -0.2451
      5 C           2.1546   -0.1333   -1.2180 C.ar    1  LIG1       -0.0460
      6 C           2.2006    0.1127    1.2160 C.ar    1  LIG1        0.0454
      7 H          -1.5096   -0.0143   -1.0967 H       1  LIG1        0.2954
      8 C           3.5362   -0.1704   -1.2690 C.ar    1  LIG1       -0.0609
      9 C           3.6058    0.0338    1.1445 C.ar    1  LIG1       -0.0397
     10 N           1.5425    0.2134    2.4192 N.pl3   1  LIG1       -0.3138
     11 H           1.5721   -0.2122   -2.1297 H       1  LIG1        0.0626
     12 C           4.2544   -0.0998   -0.0710 C.ar    1  LIG1       -0.0600
     13 C           1.9668    0.8150    3.6056 C.ar    1  LIG1        0.0327
     14 H           4.0502   -0.2745   -2.2197 H       1  LIG1        0.0618
     15 H           4.1819    0.0343    2.0630 H       1  LIG1        0.0636
     16 H           0.5374    0.0679    2.3370 H       1  LIG1        0.1522
     17 C           3.0494    1.7000    3.7014 C.ar    1  LIG1       -0.0405
     18 C           1.2297    0.5163    4.7625 C.ar    1  LIG1       -0.0222
     19 H           5.3395   -0.1689   -0.0831 H       1  LIG1        0.0618
     20 C           3.3819    2.2583    4.9322 C.ar    1  LIG1       -0.0586
     21 C           1.5784    1.0953    5.9736 C.ar    1  LIG1        0.0427
     22 H           3.6040    1.9884    2.8158 H       1  LIG1        0.0636
     23 H           0.3945   -0.1763    4.7102 H       1  LIG1        0.0651
     24 C           2.6595    1.9657    6.0853 C.ar    1  LIG1       -0.0433
     25 H           4.2183    2.9501    4.9899 H       1  LIG1        0.0619
     26 CL          0.6447    0.7067    7.3902 Cl      1  LIG1       -0.0835
     27 H           2.9192    2.4025    7.0437 H       1  LIG1        0.0632
@<TRIPOS>BOND
     1    14     8    1
     2    11     5    1
     3     8     5   ar
     4     8    12   ar
     5     3     7    1
     6     3     1    1
     7     5     2   ar
     8    19    12    1
     9    12     9   ar
    10     2     1    1
    11     2     6   ar
    12     1     4    2
    13     9     6   ar
    14     9    15    1
    15     6    10    1
    16    16    10    1
    17    10    13    1
    18    22    17    1
    19    13    17   ar
    20    13    18   ar
    21    17    20   ar
    22    23    18    1
    23    18    21   ar
    24    20    25    1
    25    20    24   ar
    26    21    24   ar
    27    21    26    1
    28    24    27    1
