@<TRIPOS>MOLECULE
zmat55.com
 27 28 0 0 0
SMALL
GASTEIGER
Energy = 0

@<TRIPOS>ATOM
      1 C           0.0000    0.0000    0.0000 C.2     1  LIG1        0.3386
      2 C           1.4639    0.0000    0.0000 C.ar    1  LIG1        0.0799
      3 O          -0.5504    0.0000   -1.2301 O.3     1  LIG1       -0.4771
      4 O          -0.7170   -0.0047    0.9946 O.2     1  LIG1       -0.2451
      5 C           2.1569   -0.1076   -1.2180 C.ar    1  LIG1       -0.0460
      6 C           2.1927    0.0865    1.2219 C.ar    1  LIG1        0.0454
      7 H          -1.5123   -0.0112   -1.0925 H       1  LIG1        0.2954
      8 C           3.5381   -0.1431   -1.2649 C.ar    1  LIG1       -0.0609
      9 C           3.6005    0.0281    1.1536 C.ar    1  LIG1       -0.0397
     10 N           1.5339    0.2077    2.4165 N.pl3   1  LIG1       -0.3138
     11 H           1.5770   -0.1684   -2.1330 H       1  LIG1        0.0626
     12 C           4.2511   -0.0835   -0.0619 C.ar    1  LIG1       -0.0600
     13 C           2.1112    0.3776    3.6849 C.ar    1  LIG1        0.0327
     14 H           4.0567   -0.2277   -2.2149 H       1  LIG1        0.0618
     15 H           4.1761    0.0515    2.0729 H       1  LIG1        0.0636
     16 H           0.5276    0.0626    2.3619 H       1  LIG1        0.1522
     17 C           3.0047    1.4228    3.9492 C.ar    1  LIG1       -0.0405
     18 C           1.7114   -0.4669    4.7260 C.ar    1  LIG1       -0.0222
     19 H           5.3374   -0.1339   -0.0725 H       1  LIG1        0.0618
     20 C           3.5097    1.5958    5.2329 C.ar    1  LIG1       -0.0586
     21 C           2.2116   -0.2591    6.0070 C.ar    1  LIG1        0.0427
     22 H           3.2830    2.1039    3.1504 H       1  LIG1        0.0636
     23 H           1.0201   -1.2813    4.5311 H       1  LIG1        0.0651
     24 C           3.1184    0.7606    6.2778 C.ar    1  LIG1       -0.0433
     25 H           4.2030    2.4089    5.4317 H       1  LIG1        0.0619
     26 CL          1.7000   -1.3127    7.2934 Cl      1  LIG1       -0.0835
     27 H           3.5004    0.9004    7.2837 H       1  LIG1        0.0632
@<TRIPOS>BOND
     1    14     8    1
     2    11     5    1
     3     8     5   ar
     4     8    12   ar
     5     3     7    1
     6     3     1    1
     7     5     2   ar
     8    19    12    1
     9    12     9   ar
    10     2     1    1
    11     2     6   ar
    12     1     4    2
    13     9     6   ar
    14     9    15    1
    15     6    10    1
    16    16    10    1
    17    10    13    1
    18    22    17    1
    19    13    17   ar
    20    13    18   ar
    21    17    20   ar
    22    23    18    1
    23    18    21   ar
    24    20    25    1
    25    20    24   ar
    26    21    24   ar
    27    21    26    1
    28    24    27    1
