@<TRIPOS>MOLECULE
zmat165.com
 27 28 0 0 0
SMALL
GASTEIGER
Energy = 0

@<TRIPOS>ATOM
      1 C           0.0000    0.0000    0.0000 C.2     1  LIG1        0.3386
      2 C           1.4666    0.0000    0.0000 C.ar    1  LIG1        0.0799
      3 O          -0.5474    0.0000   -1.2302 O.3     1  LIG1       -0.4771
      4 O          -0.7176    0.0072    0.9935 O.2     1  LIG1       -0.2451
      5 C           2.1545    0.1231   -1.2190 C.ar    1  LIG1       -0.0460
      6 C           2.1999   -0.1065    1.2169 C.ar    1  LIG1        0.0454
      7 H          -1.5099    0.0121   -1.0960 H       1  LIG1        0.2954
      8 C           3.5360    0.1545   -1.2702 C.ar    1  LIG1       -0.0609
      9 C           3.6057   -0.0376    1.1445 C.ar    1  LIG1       -0.0397
     10 N           1.5407   -0.2019    2.4190 N.pl3   1  LIG1       -0.3138
     11 H           1.5722    0.1974   -2.1313 H       1  LIG1        0.0626
     12 C           4.2542    0.0859   -0.0719 C.ar    1  LIG1       -0.0600
     13 C           1.9771   -0.7621    3.6209 C.ar    1  LIG1        0.0327
     14 H           4.0505    0.2487   -2.2216 H       1  LIG1        0.0618
     15 H           4.1837   -0.0403    2.0620 H       1  LIG1        0.0636
     16 H           0.5351   -0.0602    2.3389 H       1  LIG1        0.1522
     17 C           1.2493   -0.4504    4.7802 C.ar    1  LIG1       -0.0405
     18 C           3.0374   -1.6740    3.7114 C.ar    1  LIG1       -0.0222
     19 H           5.3399    0.1455   -0.0849 H       1  LIG1        0.0618
     20 C           1.5930   -1.0159    6.0000 C.ar    1  LIG1       -0.0586
     21 C           3.3684   -2.2134    4.9495 C.ar    1  LIG1        0.0427
     22 H           0.4188    0.2478    4.7132 H       1  LIG1        0.0636
     23 H           3.5765   -1.9964    2.8285 H       1  LIG1        0.0651
     24 C           2.6674   -1.8977    6.1077 C.ar    1  LIG1       -0.0433
     25 H           1.0211   -0.7595    6.8879 H       1  LIG1        0.0619
     26 CL          4.6938   -3.3408    5.0370 Cl      1  LIG1       -0.0835
     27 H           2.9507   -2.3329    7.0601 H       1  LIG1        0.0632
@<TRIPOS>BOND
     1    14     8    1
     2    11     5    1
     3     8     5   ar
     4     8    12   ar
     5     3     7    1
     6     3     1    1
     7     5     2   ar
     8    19    12    1
     9    12     9   ar
    10     2     1    1
    11     2     6   ar
    12     1     4    2
    13     9     6   ar
    14     9    15    1
    15     6    10    1
    16    16    10    1
    17    10    13    1
    18    23    18    1
    19    13    18   ar
    20    13    17   ar
    21    18    21   ar
    22    22    17    1
    23    17    20   ar
    24    21    26    1
    25    21    24   ar
    26    20    24   ar
    27    20    25    1
    28    24    27    1
