@<TRIPOS>MOLECULE
zmat145.com
 27 28 0 0 0
SMALL
GASTEIGER
Energy = 0

@<TRIPOS>ATOM
      1 C           0.0000    0.0000    0.0000 C.2     1  LIG1        0.3386
      2 C           1.4648    0.0000    0.0000 C.ar    1  LIG1        0.0799
      3 O          -0.5493    0.0000   -1.2300 O.3     1  LIG1       -0.4771
      4 O          -0.7178    0.0064    0.9940 O.2     1  LIG1       -0.2451
      5 C           2.1556    0.1147   -1.2185 C.ar    1  LIG1       -0.0460
      6 C           2.1956   -0.0917    1.2205 C.ar    1  LIG1        0.0454
      7 H          -1.5115    0.0107   -1.0938 H       1  LIG1        0.2954
      8 C           3.5367    0.1512   -1.2671 C.ar    1  LIG1       -0.0609
      9 C           3.6025   -0.0263    1.1505 C.ar    1  LIG1       -0.0397
     10 N           1.5334   -0.1961    2.4162 N.pl3   1  LIG1       -0.3138
     11 H           1.5745    0.1794   -2.1324 H       1  LIG1        0.0626
     12 C           4.2517    0.0910   -0.0656 C.ar    1  LIG1       -0.0600
     13 C           2.0521   -0.5324    3.6707 C.ar    1  LIG1        0.0327
     14 H           4.0537    0.2395   -2.2176 H       1  LIG1        0.0618
     15 H           4.1805   -0.0390    2.0682 H       1  LIG1        0.0636
     16 H           0.5263   -0.0607    2.3486 H       1  LIG1        0.1522
     17 C           1.5086    0.0836    4.8057 C.ar    1  LIG1       -0.0405
     18 C           3.0414   -1.5114    3.8308 C.ar    1  LIG1       -0.0222
     19 H           5.3376    0.1477   -0.0769 H       1  LIG1        0.0618
     20 C           1.9527   -0.2705    6.0743 C.ar    1  LIG1       -0.0586
     21 C           3.4834   -1.8307    5.1089 C.ar    1  LIG1        0.0427
     22 H           0.7419    0.8439    4.6816 H       1  LIG1        0.0636
     23 H           3.4389   -2.0422    2.9724 H       1  LIG1        0.0651
     24 C           2.9547   -1.2235    6.2440 C.ar    1  LIG1       -0.0433
     25 H           1.5228    0.2138    6.9471 H       1  LIG1        0.0619
     26 CL          4.7175   -3.0462    5.2888 Cl      1  LIG1       -0.0835
     27 H           3.3168   -1.4938    7.2304 H       1  LIG1        0.0632
@<TRIPOS>BOND
     1    14     8    1
     2    11     5    1
     3     8     5   ar
     4     8    12   ar
     5     3     7    1
     6     3     1    1
     7     5     2   ar
     8    19    12    1
     9    12     9   ar
    10     2     1    1
    11     2     6   ar
    12     1     4    2
    13     9     6   ar
    14     9    15    1
    15     6    10    1
    16    16    10    1
    17    10    13    1
    18    23    18    1
    19    13    18   ar
    20    13    17   ar
    21    18    21   ar
    22    22    17    1
    23    17    20   ar
    24    21    26    1
    25    21    24   ar
    26    20    24   ar
    27    20    25    1
    28    24    27    1
