@<TRIPOS>MOLECULE
zmat150.com
 27 28 0 0 0
SMALL
GASTEIGER
Energy = 0

@<TRIPOS>ATOM
      1 C           0.0000    0.0000    0.0000 C.2     1  LIG1        0.3386
      2 C           1.4651    0.0000    0.0000 C.ar    1  LIG1        0.0799
      3 O          -0.5489    0.0000   -1.2301 O.3     1  LIG1       -0.4771
      4 O          -0.7179    0.0069    0.9939 O.2     1  LIG1       -0.2451
      5 C           2.1549    0.1119   -1.2193 C.ar    1  LIG1       -0.0460
      6 C           2.1967   -0.0911    1.2199 C.ar    1  LIG1        0.0454
      7 H          -1.5112    0.0106   -1.0941 H       1  LIG1        0.2954
      8 C           3.5361    0.1465   -1.2691 C.ar    1  LIG1       -0.0609
      9 C           3.6035   -0.0251    1.1485 C.ar    1  LIG1       -0.0397
     10 N           1.5350   -0.1885    2.4172 N.pl3   1  LIG1       -0.3138
     11 H           1.5733    0.1755   -2.1329 H       1  LIG1        0.0626
     12 C           4.2521    0.0891   -0.0683 C.ar    1  LIG1       -0.0600
     13 C           2.0351   -0.5744    3.6637 C.ar    1  LIG1        0.0327
     14 H           4.0523    0.2321   -2.2203 H       1  LIG1        0.0618
     15 H           4.1820   -0.0316    2.0658 H       1  LIG1        0.0636
     16 H           0.5279   -0.0541    2.3461 H       1  LIG1        0.1522
     17 C           1.4440   -0.0295    4.8121 C.ar    1  LIG1       -0.0405
     18 C           3.0451   -1.5352    3.8062 C.ar    1  LIG1       -0.0222
     19 H           5.3379    0.1464   -0.0804 H       1  LIG1        0.0618
     20 C           1.8651   -0.4299    6.0742 C.ar    1  LIG1       -0.0586
     21 C           3.4619   -1.9018    5.0803 C.ar    1  LIG1        0.0427
     22 H           0.6587    0.7140    4.7032 H       1  LIG1        0.0636
     23 H           3.4780   -2.0188    2.9375 H       1  LIG1        0.0651
     24 C           2.8892   -1.3622    6.2277 C.ar    1  LIG1       -0.0433
     25 H           1.3988    0.0015    6.9560 H       1  LIG1        0.0619
     26 CL          4.7229   -3.0929    5.2365 Cl      1  LIG1       -0.0835
     27 H           3.2338   -1.6678    7.2100 H       1  LIG1        0.0632
@<TRIPOS>BOND
     1    14     8    1
     2    11     5    1
     3     8     5   ar
     4     8    12   ar
     5     3     7    1
     6     3     1    1
     7     5     2   ar
     8    19    12    1
     9    12     9   ar
    10     2     1    1
    11     2     6   ar
    12     1     4    2
    13     9     6   ar
    14     9    15    1
    15     6    10    1
    16    16    10    1
    17    10    13    1
    18    23    18    1
    19    13    18   ar
    20    13    17   ar
    21    18    21   ar
    22    22    17    1
    23    17    20   ar
    24    21    26    1
    25    21    24   ar
    26    20    24   ar
    27    20    25    1
    28    24    27    1
