@<TRIPOS>MOLECULE
zmat140.com
 27 28 0 0 0
SMALL
GASTEIGER
Energy = 0

@<TRIPOS>ATOM
      1 C           0.0000    0.0000    0.0000 C.2     1  LIG1        0.3386
      2 C           1.4645    0.0000    0.0000 C.ar    1  LIG1        0.0799
      3 O          -0.5497    0.0000   -1.2301 O.3     1  LIG1       -0.4771
      4 O          -0.7179    0.0057    0.9941 O.2     1  LIG1       -0.2451
      5 C           2.1556    0.1118   -1.2187 C.ar    1  LIG1       -0.0460
      6 C           2.1951   -0.0891    1.2209 C.ar    1  LIG1        0.0454
      7 H          -1.5118    0.0104   -1.0934 H       1  LIG1        0.2954
      8 C           3.5366    0.1484   -1.2673 C.ar    1  LIG1       -0.0609
      9 C           3.6023   -0.0252    1.1507 C.ar    1  LIG1       -0.0397
     10 N           1.5330   -0.1986    2.4158 N.pl3   1  LIG1       -0.3138
     11 H           1.5746    0.1741   -2.1328 H       1  LIG1        0.0626
     12 C           4.2514    0.0898   -0.0655 C.ar    1  LIG1       -0.0600
     13 C           2.0682   -0.4784    3.6786 C.ar    1  LIG1        0.0327
     14 H           4.0538    0.2347   -2.2179 H       1  LIG1        0.0618
     15 H           4.1805   -0.0406    2.0682 H       1  LIG1        0.0636
     16 H           0.5262   -0.0606    2.3512 H       1  LIG1        0.1522
     17 C           1.5683    0.2109    4.7905 C.ar    1  LIG1       -0.0405
     18 C           3.0398   -1.4699    3.8658 C.ar    1  LIG1       -0.0222
     19 H           5.3374    0.1448   -0.0768 H       1  LIG1        0.0618
     20 C           2.0356   -0.0872    6.0656 C.ar    1  LIG1       -0.0586
     21 C           3.5078   -1.7316    5.1477 C.ar    1  LIG1        0.0427
     22 H           0.8170    0.9824    4.6437 H       1  LIG1        0.0636
     23 H           3.4051   -2.0501    3.0250 H       1  LIG1        0.0651
     24 C           3.0200   -1.0533    6.2609 C.ar    1  LIG1       -0.0433
     25 H           1.6397    0.4525    6.9218 H       1  LIG1        0.0619
     26 CL          4.7205   -2.9624    5.3629 Cl      1  LIG1       -0.0835
     27 H           3.4007   -1.2796    7.2514 H       1  LIG1        0.0632
@<TRIPOS>BOND
     1    14     8    1
     2    11     5    1
     3     8     5   ar
     4     8    12   ar
     5     3     7    1
     6     3     1    1
     7     5     2   ar
     8    19    12    1
     9    12     9   ar
    10     2     1    1
    11     2     6   ar
    12     1     4    2
    13     9     6   ar
    14     9    15    1
    15     6    10    1
    16    16    10    1
    17    10    13    1
    18    23    18    1
    19    13    18   ar
    20    13    17   ar
    21    18    21   ar
    22    22    17    1
    23    17    20   ar
    24    21    26    1
    25    21    24   ar
    26    20    24   ar
    27    20    25    1
    28    24    27    1
