@<TRIPOS>MOLECULE
zmat160.com
 27 28 0 0 0
SMALL
GASTEIGER
Energy = 0

@<TRIPOS>ATOM
      1 C           0.0000    0.0000    0.0000 C.2     1  LIG1        0.3386
      2 C           1.4661    0.0000    0.0000 C.ar    1  LIG1        0.0799
      3 O          -0.5481    0.0000   -1.2301 O.3     1  LIG1       -0.4771
      4 O          -0.7177    0.0075    0.9937 O.2     1  LIG1       -0.2451
      5 C           2.1548    0.1154   -1.2194 C.ar    1  LIG1       -0.0460
      6 C           2.1988   -0.0960    1.2183 C.ar    1  LIG1        0.0454
      7 H          -1.5106    0.0117   -1.0952 H       1  LIG1        0.2954
      8 C           3.5361    0.1491   -1.2701 C.ar    1  LIG1       -0.0609
      9 C           3.6049   -0.0263    1.1464 C.ar    1  LIG1       -0.0397
     10 N           1.5386   -0.1874    2.4188 N.pl3   1  LIG1       -0.3138
     11 H           1.5727    0.1823   -2.1326 H       1  LIG1        0.0626
     12 C           4.2534    0.0901   -0.0704 C.ar    1  LIG1       -0.0600
     13 C           1.9987   -0.6833    3.6402 C.ar    1  LIG1        0.0327
     14 H           4.0513    0.2373   -2.2217 H       1  LIG1        0.0618
     15 H           4.1829   -0.0256    2.0639 H       1  LIG1        0.0636
     16 H           0.5319   -0.0521    2.3409 H       1  LIG1        0.1522
     17 C           1.3156   -0.2899    4.8011 C.ar    1  LIG1       -0.0405
     18 C           3.0444   -1.6098    3.7486 C.ar    1  LIG1       -0.0222
     19 H           5.3391    0.1506   -0.0831 H       1  LIG1        0.0618
     20 C           1.6873   -0.7942    6.0400 C.ar    1  LIG1       -0.0586
     21 C           3.4061   -2.0852    5.0040 C.ar    1  LIG1        0.0427
     22 H           0.4981    0.4220    4.7200 H       1  LIG1        0.0636
     23 H           3.5482   -1.9898    2.8673 H       1  LIG1        0.0651
     24 C           2.7476   -1.6906    6.1634 C.ar    1  LIG1       -0.0433
     25 H           1.1501   -0.4761    6.9296 H       1  LIG1        0.0619
     26 CL          4.7130   -3.2316    5.1150 Cl      1  LIG1       -0.0835
     27 H           3.0530   -2.0776    7.1297 H       1  LIG1        0.0632
@<TRIPOS>BOND
     1    14     8    1
     2    11     5    1
     3     8     5   ar
     4     8    12   ar
     5     3     7    1
     6     3     1    1
     7     5     2   ar
     8    19    12    1
     9    12     9   ar
    10     2     1    1
    11     2     6   ar
    12     1     4    2
    13     9     6   ar
    14     9    15    1
    15     6    10    1
    16    16    10    1
    17    10    13    1
    18    23    18    1
    19    13    18   ar
    20    13    17   ar
    21    18    21   ar
    22    22    17    1
    23    17    20   ar
    24    21    26    1
    25    21    24   ar
    26    20    24   ar
    27    20    25    1
    28    24    27    1
