@<TRIPOS>MOLECULE
zmat50.com
 27 28 0 0 0
SMALL
GASTEIGER
Energy = 0

@<TRIPOS>ATOM
      1 C           0.0000    0.0000    0.0000 C.2     1  LIG1        0.3386
      2 C           1.4641    0.0000    0.0000 C.ar    1  LIG1        0.0799
      3 O          -0.5501    0.0000   -1.2301 O.3     1  LIG1       -0.4771
      4 O          -0.7171   -0.0053    0.9945 O.2     1  LIG1       -0.2451
      5 C           2.1565   -0.1056   -1.2186 C.ar    1  LIG1       -0.0460
      6 C           2.1934    0.0842    1.2218 C.ar    1  LIG1        0.0454
      7 H          -1.5121   -0.0113   -1.0930 H       1  LIG1        0.2954
      8 C           3.5376   -0.1411   -1.2662 C.ar    1  LIG1       -0.0609
      9 C           3.6011    0.0240    1.1526 C.ar    1  LIG1       -0.0397
     10 N           1.5336    0.1957    2.4170 N.pl3   1  LIG1       -0.3138
     11 H           1.5762   -0.1648   -2.1333 H       1  LIG1        0.0626
     12 C           4.2513   -0.0852   -0.0634 C.ar    1  LIG1       -0.0600
     13 C           2.0959    0.4136    3.6829 C.ar    1  LIG1        0.0327
     14 H           4.0557   -0.2237   -2.2166 H       1  LIG1        0.0618
     15 H           4.1772    0.0411    2.0716 H       1  LIG1        0.0636
     16 H           0.5268    0.0552    2.3586 H       1  LIG1        0.1522
     17 C           3.0192    1.4406    3.9163 C.ar    1  LIG1       -0.0405
     18 C           1.6510   -0.3681    4.7551 C.ar    1  LIG1       -0.0222
     19 H           5.3374   -0.1379   -0.0744 H       1  LIG1        0.0618
     20 C           3.5059    1.6570    5.2006 C.ar    1  LIG1       -0.0586
     21 C           2.1350   -0.1170    6.0340 C.ar    1  LIG1        0.0427
     22 H           3.3336    2.0772    3.0946 H       1  LIG1        0.0636
     23 H           0.9372   -1.1686    4.5853 H       1  LIG1        0.0651
     24 C           3.0702    0.8845    6.2755 C.ar    1  LIG1       -0.0433
     25 H           4.2214    2.4564    5.3746 H       1  LIG1        0.0619
     26 CL          1.5669   -1.0938    7.3570 Cl      1  LIG1       -0.0835
     27 H           3.4395    1.0585    7.2809 H       1  LIG1        0.0632
@<TRIPOS>BOND
     1    14     8    1
     2    11     5    1
     3     8     5   ar
     4     8    12   ar
     5     3     7    1
     6     3     1    1
     7     5     2   ar
     8    19    12    1
     9    12     9   ar
    10     2     1    1
    11     2     6   ar
    12     1     4    2
    13     9     6   ar
    14     9    15    1
    15     6    10    1
    16    16    10    1
    17    10    13    1
    18    22    17    1
    19    13    17   ar
    20    13    18   ar
    21    17    20   ar
    22    23    18    1
    23    18    21   ar
    24    20    25    1
    25    20    24   ar
    26    21    24   ar
    27    21    26    1
    28    24    27    1
