@<TRIPOS>MOLECULE
zmat5.com
 27 28 0 0 0
SMALL
GASTEIGER
Energy = 0

@<TRIPOS>ATOM
      1 C           0.0000    0.0000    0.0000 C.2     1  LIG1        0.3386
      2 C           1.4683    0.0000    0.0000 C.ar    1  LIG1        0.0799
      3 O          -0.5456    0.0000   -1.2306 O.3     1  LIG1       -0.4771
      4 O          -0.7165   -0.0051    0.9933 O.2     1  LIG1       -0.2451
      5 C           2.1534   -0.1635   -1.2152 C.ar    1  LIG1       -0.0460
      6 C           2.2034    0.1361    1.2118 C.ar    1  LIG1        0.0454
      7 H          -1.5085   -0.0137   -1.0982 H       1  LIG1        0.2954
      8 C           3.5351   -0.2090   -1.2667 C.ar    1  LIG1       -0.0609
      9 C           3.6068    0.0413    1.1415 C.ar    1  LIG1       -0.0397
     10 N           1.5478    0.2662    2.4167 N.pl3   1  LIG1       -0.3138
     11 H           1.5697   -0.2594   -2.1245 H       1  LIG1        0.0626
     12 C           4.2548   -0.1213   -0.0714 C.ar    1  LIG1       -0.0600
     13 C           1.9312    0.9801    3.5535 C.ar    1  LIG1        0.0327
     14 H           4.0472   -0.3375   -2.2153 H       1  LIG1        0.0618
     15 H           4.1822    0.0449    2.0604 H       1  LIG1        0.0636
     16 H           0.5449    0.1081    2.3330 H       1  LIG1        0.1522
     17 C           3.0604    1.8065    3.6377 C.ar    1  LIG1       -0.0405
     18 C           1.1102    0.8397    4.6850 C.ar    1  LIG1       -0.0222
     19 H           5.3391   -0.2029   -0.0821 H       1  LIG1        0.0618
     20 C           3.3515    2.4646    4.8294 C.ar    1  LIG1       -0.0586
     21 C           1.4243    1.5101    5.8570 C.ar    1  LIG1        0.0427
     22 H           3.6869    1.9772    2.7705 H       1  LIG1        0.0636
     23 H           0.2377    0.1937    4.6461 H       1  LIG1        0.0651
     24 C           2.5484    2.3264    5.9568 C.ar    1  LIG1       -0.0433
     25 H           4.2250    3.1102    4.8747 H       1  LIG1        0.0619
     26 CL          0.3875    1.3117    7.2412 Cl      1  LIG1       -0.0835
     27 H           2.7789    2.8375    6.8854 H       1  LIG1        0.0632
@<TRIPOS>BOND
     1    14     8    1
     2    11     5    1
     3     8     5   ar
     4     8    12   ar
     5     3     7    1
     6     3     1    1
     7     5     2   ar
     8    19    12    1
     9    12     9   ar
    10     2     1    1
    11     2     6   ar
    12     1     4    2
    13     9     6   ar
    14     9    15    1
    15     6    10    1
    16    16    10    1
    17    10    13    1
    18    22    17    1
    19    13    17   ar
    20    13    18   ar
    21    17    20   ar
    22    23    18    1
    23    18    21   ar
    24    20    25    1
    25    20    24   ar
    26    21    24   ar
    27    21    26    1
    28    24    27    1
