@<TRIPOS>MOLECULE
zmat105.com
 27 28 0 0 0
SMALL
GASTEIGER
Energy = 0

@<TRIPOS>ATOM
      1 C           0.0000    0.0000    0.0000 C.2     1  LIG1        0.3386
      2 C           1.4630    0.0000    0.0000 C.ar    1  LIG1        0.0799
      3 O          -0.5509    0.0000   -1.2304 O.3     1  LIG1       -0.4771
      4 O          -0.7183    0.0109    0.9940 O.2     1  LIG1       -0.2451
      5 C           2.1586    0.0456   -1.2209 C.ar    1  LIG1       -0.0460
      6 C           2.1901   -0.0142    1.2258 C.ar    1  LIG1        0.0454
      7 H          -1.5128    0.0055   -1.0919 H       1  LIG1        0.2954
      8 C           3.5395    0.0880   -1.2667 C.ar    1  LIG1       -0.0609
      9 C           3.5977    0.0494    1.1579 C.ar    1  LIG1       -0.0397
     10 N           1.5366   -0.0981    2.4269 N.pl3   1  LIG1       -0.3138
     11 H           1.5806    0.0525   -2.1391 H       1  LIG1        0.0626
     12 C           4.2504    0.0973   -0.0608 C.ar    1  LIG1       -0.0600
     13 C           2.1466    0.0556    3.6923 C.ar    1  LIG1        0.0327
     14 H           4.0598    0.1224   -2.2188 H       1  LIG1        0.0618
     15 H           4.1712    0.0646    2.0789 H       1  LIG1        0.0636
     16 H           0.5261    0.0124    2.3649 H       1  LIG1        0.1522
     17 C           1.9612    1.2303    4.4252 C.ar    1  LIG1       -0.0405
     18 C           2.9250   -0.9782    4.2206 C.ar    1  LIG1       -0.0222
     19 H           5.3368    0.1459   -0.0725 H       1  LIG1        0.0618
     20 C           2.5371    1.3599    5.6866 C.ar    1  LIG1       -0.0586
     21 C           3.5100   -0.8195    5.4719 C.ar    1  LIG1        0.0427
     22 H           1.3654    2.0338    4.0007 H       1  LIG1        0.0636
     23 H           3.0576   -1.8974    3.6587 H       1  LIG1        0.0651
     24 C           3.3218    0.3405    6.2191 C.ar    1  LIG1       -0.0433
     25 H           2.3851    2.2712    6.2588 H       1  LIG1        0.0619
     26 CL          4.4810   -2.1078    6.1235 Cl      1  LIG1       -0.0835
     27 H           3.7819    0.4388    7.1971 H       1  LIG1        0.0632
@<TRIPOS>BOND
     1    14     8    1
     2    11     5    1
     3     8     5   ar
     4     8    12   ar
     5     3     7    1
     6     3     1    1
     7     5     2   ar
     8    19    12    1
     9    12     9   ar
    10     2     1    1
    11     2     6   ar
    12     1     4    2
    13     9     6   ar
    14     9    15    1
    15     6    10    1
    16    16    10    1
    17    10    13    1
    18    23    18    1
    19    13    18   ar
    20    13    17   ar
    21    22    17    1
    22    18    21   ar
    23    17    20   ar
    24    21    26    1
    25    21    24   ar
    26    20    24   ar
    27    20    25    1
    28    24    27    1
