@<TRIPOS>MOLECULE
zmat30.com
 27 28 0 0 0
SMALL
GASTEIGER
Energy = 0

@<TRIPOS>ATOM
      1 C           0.0000    0.0000    0.0000 C.2     1  LIG1        0.3386
      2 C           1.4655    0.0000    0.0000 C.ar    1  LIG1        0.0799
      3 O          -0.5481    0.0000   -1.2303 O.3     1  LIG1       -0.4771
      4 O          -0.7173   -0.0065    0.9939 O.2     1  LIG1       -0.2451
      5 C           2.1551   -0.1114   -1.2194 C.ar    1  LIG1       -0.0460
      6 C           2.1971    0.0920    1.2195 C.ar    1  LIG1        0.0454
      7 H          -1.5105   -0.0117   -1.0950 H       1  LIG1        0.2954
      8 C           3.5363   -0.1454   -1.2695 C.ar    1  LIG1       -0.0609
      9 C           3.6038    0.0250    1.1479 C.ar    1  LIG1       -0.0397
     10 N           1.5369    0.1819    2.4187 N.pl3   1  LIG1       -0.3138
     11 H           1.5734   -0.1757   -2.1329 H       1  LIG1        0.0626
     12 C           4.2527   -0.0883   -0.0688 C.ar    1  LIG1       -0.0600
     13 C           2.0264    0.6180    3.6532 C.ar    1  LIG1        0.0327
     14 H           4.0522   -0.2316   -2.2209 H       1  LIG1        0.0618
     15 H           4.1806    0.0278    2.0663 H       1  LIG1        0.0636
     16 H           0.5297    0.0490    2.3453 H       1  LIG1        0.1522
     17 C           3.0430    1.5733    3.7863 C.ar    1  LIG1       -0.0405
     18 C           1.4164    0.1051    4.8068 C.ar    1  LIG1       -0.0222
     19 H           5.3385   -0.1479   -0.0813 H       1  LIG1        0.0618
     20 C           3.4455    1.9856    5.0524 C.ar    1  LIG1       -0.0586
     21 C           1.8257    0.5476    6.0574 C.ar    1  LIG1        0.0427
     22 H           3.4909    2.0188    2.9043 H       1  LIG1        0.0636
     23 H           0.6317   -0.6407    4.7201 H       1  LIG1        0.0651
     24 C           2.8474    1.4814    6.2044 C.ar    1  LIG1       -0.0433
     25 H           4.2311    2.7314    5.1434 H       1  LIG1        0.0619
     26 CL          1.0495   -0.0995    7.4742 Cl      1  LIG1       -0.0835
     27 H           3.1565    1.8077    7.1918 H       1  LIG1        0.0632
@<TRIPOS>BOND
     1    14     8    1
     2    11     5    1
     3     8     5   ar
     4     8    12   ar
     5     3     7    1
     6     3     1    1
     7     5     2   ar
     8    19    12    1
     9    12     9   ar
    10     2     1    1
    11     2     6   ar
    12     1     4    2
    13     9     6   ar
    14     9    15    1
    15     6    10    1
    16    16    10    1
    17    10    13    1
    18    22    17    1
    19    13    17   ar
    20    13    18   ar
    21    17    20   ar
    22    23    18    1
    23    18    21   ar
    24    20    25    1
    25    20    24   ar
    26    21    24   ar
    27    21    26    1
    28    24    27    1
