@<TRIPOS>MOLECULE
zmat95.com
 27 28 0 0 0
SMALL
GASTEIGER
Energy = 0

@<TRIPOS>ATOM
      1 C           0.0000    0.0000    0.0000 C.2     1  LIG1        0.3386
      2 C           1.4624    0.0000    0.0000 C.ar    1  LIG1        0.0799
      3 O          -0.5515    0.0000   -1.2305 O.3     1  LIG1       -0.4771
      4 O          -0.7179    0.0085    0.9944 O.2     1  LIG1       -0.2451
      5 C           2.1606    0.0315   -1.2199 C.ar    1  LIG1       -0.0460
      6 C           2.1873   -0.0076    1.2269 C.ar    1  LIG1        0.0454
      7 H          -1.5132    0.0041   -1.0914 H       1  LIG1        0.2954
      8 C           3.5419    0.0638   -1.2632 C.ar    1  LIG1       -0.0609
      9 C           3.5962    0.0396    1.1616 C.ar    1  LIG1       -0.0397
     10 N           1.5379   -0.0740    2.4289 N.pl3   1  LIG1       -0.3138
     11 H           1.5844    0.0343   -2.1392 H       1  LIG1        0.0626
     12 C           4.2513    0.0726   -0.0559 C.ar    1  LIG1       -0.0600
     13 C           2.1695    0.0918    3.6863 C.ar    1  LIG1        0.0327
     14 H           4.0643    0.0877   -2.2146 H       1  LIG1        0.0618
     15 H           4.1668    0.0490    2.0849 H       1  LIG1        0.0636
     16 H           0.5245    0.0101    2.3748 H       1  LIG1        0.1522
     17 C           2.1815    1.3394    4.3137 C.ar    1  LIG1       -0.0405
     18 C           2.7747   -1.0052    4.3037 C.ar    1  LIG1       -0.0222
     19 H           5.3383    0.1071   -0.0666 H       1  LIG1        0.0618
     20 C           2.7820    1.4822    5.5623 C.ar    1  LIG1       -0.0586
     21 C           3.3825   -0.8393    5.5438 C.ar    1  LIG1        0.0427
     22 H           1.7176    2.1875    3.8178 H       1  LIG1        0.0636
     23 H           2.7601   -1.9747    3.8159 H       1  LIG1        0.0651
     24 C           3.3907    0.3961    6.1863 C.ar    1  LIG1       -0.0433
     25 H           2.7844    2.4511    6.0544 H       1  LIG1        0.0619
     26 CL          4.1345   -2.2076    6.3110 Cl      1  LIG1       -0.0835
     27 H           3.8654    0.5012    7.1568 H       1  LIG1        0.0632
@<TRIPOS>BOND
     1    14     8    1
     2    11     5    1
     3     8     5   ar
     4     8    12   ar
     5     3     7    1
     6     3     1    1
     7     5     2   ar
     8    19    12    1
     9    12     9   ar
    10     2     1    1
    11     2     6   ar
    12     1     4    2
    13     9     6   ar
    14     9    15    1
    15     6    10    1
    16    16    10    1
    17    10    13    1
    18    13    18   ar
    19    13    17   ar
    20    23    18    1
    21    22    17    1
    22    18    21   ar
    23    17    20   ar
    24    21    24   ar
    25    21    26    1
    26    20    25    1
    27    20    24   ar
    28    24    27    1
