@<TRIPOS>MOLECULE
zmat120.com
 33 34 0 0 0
SMALL
GASTEIGER
Energy = 0

@<TRIPOS>ATOM
      1 C           0.0000    0.0000    0.0000 C.3     1  LIG1       -0.0377
      2 C           1.5021    0.0000    0.0000 C.ar    1  LIG1       -0.0264
      3 C           2.2070    0.0000    1.2207 C.ar    1  LIG1       -0.0458
      4 C           1.4650   -0.0629    2.5283 C.3     1  LIG1       -0.0394
      5 C           3.6003    0.0879    1.2187 C.ar    1  LIG1       -0.0585
      6 C           4.3120    0.1771    0.0257 C.ar    1  LIG1       -0.0597
      7 C           3.6295    0.1421   -1.1823 C.ar    1  LIG1       -0.0403
      8 C           2.2348    0.0370   -1.2015 C.ar    1  LIG1        0.0345
      9 N           1.5946    0.0504   -2.4629 N.pl3   1  LIG1       -0.3136
     10 C           0.8122   -0.9376   -2.9857 C.ar    1  LIG1        0.0454
     11 C           0.6357   -2.1655   -2.3111 C.ar    1  LIG1       -0.0397
     12 C          -0.1623   -3.1621   -2.8410 C.ar    1  LIG1       -0.0600
     13 C          -0.8217   -2.9916   -4.0653 C.ar    1  LIG1       -0.0609
     14 C          -0.6461   -1.8049   -4.7518 C.ar    1  LIG1       -0.0460
     15 C           0.1621   -0.7720   -4.2447 C.ar    1  LIG1        0.0799
     16 C           0.3418    0.4538   -5.0208 C.2     1  LIG1        0.3386
     17 O          -0.3774    0.4950   -6.1618 O.3     1  LIG1       -0.4771
     18 O           1.0686    1.3950   -4.7205 O.2     1  LIG1       -0.2451
     19 H          -0.3974    0.3199   -0.9661 H       1  LIG1        0.0278
     20 H          -0.3895    0.6771    0.7680 H       1  LIG1        0.0278
     21 H          -0.4135   -0.9959    0.2103 H       1  LIG1        0.0278
     22 H           0.8692    0.8430    2.7007 H       1  LIG1        0.0278
     23 H           2.1603   -0.1634    3.3672 H       1  LIG1        0.0278
     24 H           0.7703   -0.9108    2.5627 H       1  LIG1        0.0278
     25 H           4.1324    0.0953    2.1676 H       1  LIG1        0.0620
     26 H           5.3960    0.2556    0.0380 H       1  LIG1        0.0618
     27 H           4.1648    0.1783   -2.1278 H       1  LIG1        0.0636
     28 H           1.1569   -2.3253   -1.3723 H       1  LIG1        0.0636
     29 H          -0.2677   -4.0970   -2.2951 H       1  LIG1        0.0618
     30 H          -1.4485   -3.7786   -4.4733 H       1  LIG1        0.0618
     31 H          -1.1321   -1.6506   -5.7096 H       1  LIG1        0.0626
     32 H           1.7723    0.8330   -3.0882 H       1  LIG1        0.1522
     33 H          -0.1623    1.3454   -6.5799 H       1  LIG1        0.2954
@<TRIPOS>BOND
     1    33    17    1
     2    17    16    1
     3    31    14    1
     4    16    18    2
     5    16    15    1
     6    14    15   ar
     7    14    13   ar
     8    30    13    1
     9    15    10   ar
    10    13    12   ar
    11    32     9    1
    12    10     9    1
    13    10    11   ar
    14    12    11   ar
    15    12    29    1
    16     9     8    1
    17    11    28    1
    18    27     7    1
    19     8     7   ar
    20     8     2   ar
    21     7     6   ar
    22    19     1    1
    23     1     2    1
    24     1    21    1
    25     1    20    1
    26     2     3   ar
    27     6    26    1
    28     6     5   ar
    29     5     3   ar
    30     5    25    1
    31     3     4    1
    32     4    24    1
    33     4    22    1
    34     4    23    1
