@<TRIPOS>MOLECULE
zmat180.com
 33 34 0 0 0
SMALL
GASTEIGER
Energy = 0

@<TRIPOS>ATOM
      1 C           0.0000    0.0000    0.0000 C.3     1  LIG1       -0.0377
      2 C           1.5063    0.0000    0.0000 C.ar    1  LIG1       -0.0264
      3 C           2.1674    0.0000    1.2505 C.ar    1  LIG1       -0.0458
      4 C           1.3899   -0.2041    2.5249 C.3     1  LIG1       -0.0394
      5 C           3.5380    0.2357    1.3337 C.ar    1  LIG1       -0.0585
      6 C           4.2732    0.5062    0.1827 C.ar    1  LIG1       -0.0597
      7 C           3.6515    0.4566   -1.0509 C.ar    1  LIG1       -0.0403
      8 C           2.2887    0.1274   -1.1693 C.ar    1  LIG1        0.0345
      9 N           1.8348    0.1010   -2.5049 N.pl3   1  LIG1       -0.3136
     10 C           0.5933   -0.1713   -3.0422 C.ar    1  LIG1        0.0454
     11 C          -0.0994   -1.3421   -2.6731 C.ar    1  LIG1       -0.0397
     12 C          -1.3112   -1.6727   -3.2495 C.ar    1  LIG1       -0.0600
     13 C          -1.8794   -0.8593   -4.2385 C.ar    1  LIG1       -0.0609
     14 C          -1.1945    0.2689   -4.6498 C.ar    1  LIG1       -0.0460
     15 C           0.0414    0.6270   -4.0813 C.ar    1  LIG1        0.0799
     16 C           0.7490    1.8102   -4.5841 C.2     1  LIG1        0.3386
     17 O           0.0200    2.5620   -5.4324 O.3     1  LIG1       -0.4771
     18 O           1.8969    2.1316   -4.3054 O.2     1  LIG1       -0.2451
     19 H          -0.4077    0.5296   -0.8629 H       1  LIG1        0.0278
     20 H          -0.3713    0.5100    0.8937 H       1  LIG1        0.0278
     21 H          -0.4432   -1.0049   -0.0008 H       1  LIG1        0.0278
     22 H           0.7784    0.6725    2.7779 H       1  LIG1        0.0278
     23 H           2.0708   -0.3767    3.3640 H       1  LIG1        0.0278
     24 H           0.7105   -1.0620    2.4618 H       1  LIG1        0.0278
     25 H           4.0228    0.2410    2.3072 H       1  LIG1        0.0620
     26 H           5.3320    0.7436    0.2463 H       1  LIG1        0.0618
     27 H           4.2271    0.6224   -1.9591 H       1  LIG1        0.0636
     28 H           0.3583   -1.9987   -1.9395 H       1  LIG1        0.0636
     29 H          -1.8131   -2.5878   -2.9439 H       1  LIG1        0.0618
     30 H          -2.8297   -1.1220   -4.6935 H       1  LIG1        0.0618
     31 H          -1.6009    0.8988   -5.4342 H       1  LIG1        0.0626
     32 H           2.3212    0.7965   -3.0684 H       1  LIG1        0.1522
     33 H           0.5993    3.2922   -5.7081 H       1  LIG1        0.2954
@<TRIPOS>BOND
     1    33    17    1
     2    31    14    1
     3    17    16    1
     4    30    13    1
     5    14    13   ar
     6    14    15   ar
     7    16    18    2
     8    16    15    1
     9    13    12   ar
    10    15    10   ar
    11    12    29    1
    12    12    11   ar
    13    32     9    1
    14    10    11   ar
    15    10     9    1
    16    11    28    1
    17     9     8    1
    18    27     7    1
    19     8     7   ar
    20     8     2   ar
    21     7     6   ar
    22    19     1    1
    23    21     1    1
    24     2     1    1
    25     2     3   ar
    26     1    20    1
    27     6    26    1
    28     6     5   ar
    29     3     5   ar
    30     3     4    1
    31     5    25    1
    32    24     4    1
    33     4    22    1
    34     4    23    1
