@<TRIPOS>MOLECULE
zmat25.com
 33 34 0 0 0
SMALL
GASTEIGER
Energy = 0

@<TRIPOS>ATOM
      1 C           0.0000    0.0000    0.0000 C.3     1  LIG1       -0.0377
      2 C           1.5039    0.0000    0.0000 C.ar    1  LIG1       -0.0264
      3 C           2.2406    0.0000    1.1974 C.ar    1  LIG1       -0.0458
      4 C           1.5495    0.0109    2.5356 C.3     1  LIG1       -0.0394
      5 C           3.6373   -0.0189    1.1494 C.ar    1  LIG1       -0.0585
      6 C           4.3078   -0.0170   -0.0694 C.ar    1  LIG1       -0.0597
      7 C           3.5925    0.0059   -1.2590 C.ar    1  LIG1       -0.0403
      8 C           2.1934    0.0102   -1.2307 C.ar    1  LIG1        0.0345
      9 N           1.4222    0.0675   -2.4050 N.pl3   1  LIG1       -0.3136
     10 C           1.7736   -0.3320   -3.6684 C.ar    1  LIG1        0.0454
     11 C           2.7150   -1.3618   -3.8823 C.ar    1  LIG1       -0.0397
     12 C           3.0369   -1.7837   -5.1590 C.ar    1  LIG1       -0.0600
     13 C           2.4373   -1.2074   -6.2858 C.ar    1  LIG1       -0.0609
     14 C           1.4921   -0.2168   -6.0992 C.ar    1  LIG1       -0.0460
     15 C           1.1389    0.2320   -4.8139 C.ar    1  LIG1        0.0799
     16 C           0.1116    1.2659   -4.6721 C.2     1  LIG1        0.3386
     17 O          -0.3161    1.7800   -5.8429 O.3     1  LIG1       -0.4771
     18 O          -0.3635    1.6687   -3.6158 O.2     1  LIG1       -0.2451
     19 H          -0.3912   -0.6715   -0.7726 H       1  LIG1        0.0278
     20 H          -0.4111    0.9987   -0.2070 H       1  LIG1        0.0278
     21 H          -0.4068   -0.3209    0.9616 H       1  LIG1        0.0278
     22 H           0.8724    0.8673    2.6392 H       1  LIG1        0.0278
     23 H           2.2815    0.0662    3.3472 H       1  LIG1        0.0278
     24 H           0.9510   -0.8952    2.6949 H       1  LIG1        0.0278
     25 H           4.2021   -0.0268    2.0789 H       1  LIG1        0.0620
     26 H           5.3947   -0.0128   -0.0951 H       1  LIG1        0.0618
     27 H           4.1160    0.0603   -2.2082 H       1  LIG1        0.0636
     28 H           3.1652   -1.8480   -3.0235 H       1  LIG1        0.0636
     29 H           3.7587   -2.5881   -5.2805 H       1  LIG1        0.0618
     30 H           2.6967   -1.5418   -7.2856 H       1  LIG1        0.0618
     31 H           0.9969    0.2335   -6.9530 H       1  LIG1        0.0626
     32 H           0.6328    0.7103   -2.3939 H       1  LIG1        0.1522
     33 H          -0.9951    2.4361   -5.6132 H       1  LIG1        0.2954
@<TRIPOS>BOND
     1    30    13    1
     2    31    14    1
     3    13    14   ar
     4    13    12   ar
     5    14    15   ar
     6    17    33    1
     7    17    16    1
     8    29    12    1
     9    12    11   ar
    10    15    16    1
    11    15    10   ar
    12    16    18    2
    13    11    10   ar
    14    11    28    1
    15    10     9    1
    16     9    32    1
    17     9     8    1
    18    27     7    1
    19     7     8   ar
    20     7     6   ar
    21     8     2   ar
    22    19     1    1
    23    20     1    1
    24    26     6    1
    25     6     5   ar
    26     2     1    1
    27     2     3   ar
    28     1    21    1
    29     5     3   ar
    30     5    25    1
    31     3     4    1
    32     4    22    1
    33     4    24    1
    34     4    23    1
