@<TRIPOS>MOLECULE
zmat150.com
 33 34 0 0 0
SMALL
GASTEIGER
Energy = 0

@<TRIPOS>ATOM
      1 C           0.0000    0.0000    0.0000 C.3     1  LIG1       -0.0377
      2 C           1.5038    0.0000    0.0000 C.ar    1  LIG1       -0.0264
      3 C           2.1882    0.0000    1.2345 C.ar    1  LIG1       -0.0458
      4 C           1.4308   -0.1603    2.5260 C.3     1  LIG1       -0.0394
      5 C           3.5679    0.2012    1.2736 C.ar    1  LIG1       -0.0585
      6 C           4.2865    0.4222    0.1017 C.ar    1  LIG1       -0.0597
      7 C           3.6354    0.3675   -1.1198 C.ar    1  LIG1       -0.0403
      8 C           2.2605    0.0995   -1.1872 C.ar    1  LIG1        0.0345
      9 N           1.7046    0.1004   -2.4836 N.pl3   1  LIG1       -0.3136
     10 C           0.6391   -0.6209   -2.9514 C.ar    1  LIG1        0.0454
     11 C           0.3083   -1.8682   -2.3788 C.ar    1  LIG1       -0.0397
     12 C          -0.7322   -2.6291   -2.8750 C.ar    1  LIG1       -0.0600
     13 C          -1.4903   -2.1914   -3.9696 C.ar    1  LIG1       -0.0609
     14 C          -1.1639   -0.9875   -4.5646 C.ar    1  LIG1       -0.0460
     15 C          -0.1067   -0.1917   -4.0865 C.ar    1  LIG1        0.0799
     16 C           0.2223    1.0616   -4.7667 C.2     1  LIG1        0.3386
     17 O          -0.6321    1.3907   -5.7570 O.3     1  LIG1       -0.4771
     18 O           1.1753    1.7891   -4.5105 O.2     1  LIG1       -0.2451
     19 H          -0.4025    0.4380   -0.9163 H       1  LIG1        0.0278
     20 H          -0.3766    0.5902    0.8417 H       1  LIG1        0.0278
     21 H          -0.4325   -1.0054    0.0914 H       1  LIG1        0.0278
     22 H           0.8233    0.7256    2.7548 H       1  LIG1        0.0278
     23 H           2.1205   -0.3072    3.3627 H       1  LIG1        0.0278
     24 H           0.7474   -1.0171    2.4978 H       1  LIG1        0.0278
     25 H           4.0779    0.2106    2.2344 H       1  LIG1        0.0620
     26 H           5.3554    0.6156    0.1400 H       1  LIG1        0.0618
     27 H           4.1878    0.4886   -2.0487 H       1  LIG1        0.0636
     28 H           0.9093   -2.2333   -1.5513 H       1  LIG1        0.0636
     29 H          -0.9510   -3.5896   -2.4137 H       1  LIG1        0.0618
     30 H          -2.3074   -2.7935   -4.3551 H       1  LIG1        0.0618
     31 H          -1.7211   -0.6346   -5.4262 H       1  LIG1        0.0626
     32 H           1.9495    0.8940   -3.0728 H       1  LIG1        0.1522
     33 H          -0.2977    2.2230   -6.1310 H       1  LIG1        0.2954
@<TRIPOS>BOND
     1    33    17    1
     2    17    16    1
     3    31    14    1
     4    16    18    2
     5    16    15    1
     6    14    15   ar
     7    14    13   ar
     8    30    13    1
     9    15    10   ar
    10    13    12   ar
    11    32     9    1
    12    10     9    1
    13    10    11   ar
    14    12    29    1
    15    12    11   ar
    16     9     8    1
    17    11    28    1
    18    27     7    1
    19     8     7   ar
    20     8     2   ar
    21     7     6   ar
    22    19     1    1
    23     1     2    1
    24     1    21    1
    25     1    20    1
    26     2     3   ar
    27     6    26    1
    28     6     5   ar
    29     3     5   ar
    30     3     4    1
    31     5    25    1
    32    24     4    1
    33     4    22    1
    34     4    23    1
