@<TRIPOS>MOLECULE
zmat100.com
 33 34 0 0 0
SMALL
GASTEIGER
Energy = 0

@<TRIPOS>ATOM
      1 C           0.0000    0.0000    0.0000 C.3     1  LIG1       -0.0377
      2 C           1.5016    0.0000    0.0000 C.ar    1  LIG1       -0.0264
      3 C           2.2130    0.0000    1.2167 C.ar    1  LIG1       -0.0458
      4 C           1.4764   -0.0128    2.5280 C.3     1  LIG1       -0.0394
      5 C           3.6088    0.0241    1.2005 C.ar    1  LIG1       -0.0585
      6 C           4.3161    0.0438    0.0014 C.ar    1  LIG1       -0.0597
      7 C           3.6226    0.0247   -1.2017 C.ar    1  LIG1       -0.0403
      8 C           2.2254    0.0056   -1.2048 C.ar    1  LIG1        0.0345
      9 N           1.5503    0.0114   -2.4546 N.pl3   1  LIG1       -0.3136
     10 C           1.0251   -1.0934   -3.0584 C.ar    1  LIG1        0.0454
     11 C           1.0142   -2.3437   -2.4016 C.ar    1  LIG1       -0.0397
     12 C           0.4566   -3.4581   -3.0002 C.ar    1  LIG1       -0.0600
     13 C          -0.1147   -3.3883   -4.2775 C.ar    1  LIG1       -0.0609
     14 C          -0.1037   -2.1766   -4.9425 C.ar    1  LIG1       -0.0460
     15 C           0.4576   -1.0237   -4.3653 C.ar    1  LIG1        0.0799
     16 C           0.4682    0.2313   -5.1142 C.2     1  LIG1        0.3386
     17 O          -0.1318    0.1588   -6.3210 O.3     1  LIG1       -0.4771
     18 O           0.9642    1.2885   -4.7392 O.2     1  LIG1       -0.2451
     19 H          -0.3941    0.2173   -0.9952 H       1  LIG1        0.0278
     20 H          -0.3963    0.7475    0.6968 H       1  LIG1        0.0278
     21 H          -0.4028   -0.9728    0.3131 H       1  LIG1        0.0278
     22 H           0.8812    0.8990    2.6671 H       1  LIG1        0.0278
     23 H           2.1731   -0.0843    3.3687 H       1  LIG1        0.0278
     24 H           0.7803   -0.8580    2.5949 H       1  LIG1        0.0278
     25 H           4.1489    0.0287    2.1452 H       1  LIG1        0.0620
     26 H           5.4028    0.0625    0.0062 H       1  LIG1        0.0618
     27 H           4.1493    0.0203   -2.1526 H       1  LIG1        0.0636
     28 H           1.4641   -2.4203   -1.4165 H       1  LIG1        0.0636
     29 H           0.4699   -4.4046   -2.4644 H       1  LIG1        0.0618
     30 H          -0.5515   -4.2684   -4.7396 H       1  LIG1        0.0618
     31 H          -0.5302   -2.0948   -5.9369 H       1  LIG1        0.0626
     32 H           1.6225    0.8343   -3.0483 H       1  LIG1        0.1522
     33 H          -0.0505    1.0453   -6.7106 H       1  LIG1        0.2954
@<TRIPOS>BOND
     1    33    17    1
     2    17    16    1
     3    31    14    1
     4    16    18    2
     5    16    15    1
     6    14    15   ar
     7    14    13   ar
     8    30    13    1
     9    15    10   ar
    10    13    12   ar
    11    10     9    1
    12    10    11   ar
    13    32     9    1
    14    12    29    1
    15    12    11   ar
    16     9     8    1
    17    11    28    1
    18    27     7    1
    19     8     7   ar
    20     8     2   ar
    21     7     6   ar
    22    19     1    1
    23     1     2    1
    24     1    21    1
    25     1    20    1
    26     2     3   ar
    27     6    26    1
    28     6     5   ar
    29     5     3   ar
    30     5    25    1
    31     3     4    1
    32     4    24    1
    33     4    22    1
    34     4    23    1
