@<TRIPOS>MOLECULE
zmat80.com
 33 34 0 0 0
SMALL
GASTEIGER
Energy = 0

@<TRIPOS>ATOM
      1 C           0.0000    0.0000    0.0000 C.3     1  LIG1       -0.0377
      2 C           1.5021    0.0000    0.0000 C.ar    1  LIG1       -0.0264
      3 C           2.2112    0.0000    1.2189 C.ar    1  LIG1       -0.0458
      4 C           1.4710    0.0122    2.5279 C.3     1  LIG1       -0.0394
      5 C           3.6066   -0.0134    1.2048 C.ar    1  LIG1       -0.0585
      6 C           4.3167   -0.0211    0.0064 C.ar    1  LIG1       -0.0597
      7 C           3.6254   -0.0047   -1.1974 C.ar    1  LIG1       -0.0403
      8 C           2.2280    0.0035   -1.2026 C.ar    1  LIG1        0.0345
      9 N           1.5512    0.0518   -2.4508 N.pl3   1  LIG1       -0.3136
     10 C           1.3449   -1.0198   -3.2662 C.ar    1  LIG1        0.0454
     11 C           1.8123   -2.3050   -2.9093 C.ar    1  LIG1       -0.0397
     12 C           1.6093   -3.3917   -3.7386 C.ar    1  LIG1       -0.0600
     13 C           0.9356   -3.2599   -4.9605 C.ar    1  LIG1       -0.0609
     14 C           0.4637   -2.0132   -5.3247 C.ar    1  LIG1       -0.0460
     15 C           0.6489   -0.8856   -4.5046 C.ar    1  LIG1        0.0799
     16 C           0.1181    0.4101   -4.9203 C.2     1  LIG1        0.3386
     17 O          -0.4977    0.3963   -6.1213 O.3     1  LIG1       -0.4771
     18 O           0.1889    1.4552   -4.2811 O.2     1  LIG1       -0.2451
     19 H          -0.3977   -0.1471   -1.0064 H       1  LIG1        0.0278
     20 H          -0.4004    0.9483    0.3830 H       1  LIG1        0.0278
     21 H          -0.3974   -0.7939    0.6434 H       1  LIG1        0.0278
     22 H           0.7899    0.8693    2.6002 H       1  LIG1        0.0278
     23 H           2.1658    0.0643    3.3716 H       1  LIG1        0.0278
     24 H           0.8586   -0.8898    2.6563 H       1  LIG1        0.0278
     25 H           4.1452   -0.0143    2.1503 H       1  LIG1        0.0620
     26 H           5.4037   -0.0267    0.0136 H       1  LIG1        0.0618
     27 H           4.1514    0.0061   -2.1483 H       1  LIG1        0.0636
     28 H           2.3362   -2.4280   -1.9665 H       1  LIG1        0.0636
     29 H           1.9820   -4.3654   -3.4288 H       1  LIG1        0.0618
     30 H           0.7829   -4.1193   -5.6062 H       1  LIG1        0.0618
     31 H          -0.0669   -1.8817   -6.2621 H       1  LIG1        0.0626
     32 H           1.1330    0.9254   -2.7620 H       1  LIG1        0.1522
     33 H          -0.8006    1.3068   -6.2736 H       1  LIG1        0.2954
@<TRIPOS>BOND
     1    33    17    1
     2    31    14    1
     3    17    16    1
     4    30    13    1
     5    14    13   ar
     6    14    15   ar
     7    13    12   ar
     8    16    15    1
     9    16    18    2
    10    15    10   ar
    11    12    29    1
    12    12    11   ar
    13    10    11   ar
    14    10     9    1
    15    11    28    1
    16    32     9    1
    17     9     8    1
    18    27     7    1
    19     8     7   ar
    20     8     2   ar
    21     7     6   ar
    22    19     1    1
    23     2     1    1
    24     2     3   ar
    25     1    20    1
    26     1    21    1
    27     6    26    1
    28     6     5   ar
    29     5     3   ar
    30     5    25    1
    31     3     4    1
    32     4    22    1
    33     4    24    1
    34     4    23    1
