@<TRIPOS>MOLECULE
zmat130.com
 33 34 0 0 0
SMALL
GASTEIGER
Energy = 0

@<TRIPOS>ATOM
      1 C           0.0000    0.0000    0.0000 C.3     1  LIG1       -0.0377
      2 C           1.5025    0.0000    0.0000 C.ar    1  LIG1       -0.0264
      3 C           2.2023    0.0000    1.2241 C.ar    1  LIG1       -0.0458
      4 C           1.4566   -0.0926    2.5281 C.3     1  LIG1       -0.0394
      5 C           3.5926    0.1245    1.2325 C.ar    1  LIG1       -0.0585
      6 C           4.3066    0.2551    0.0447 C.ar    1  LIG1       -0.0597
      7 C           3.6324    0.2120   -1.1669 C.ar    1  LIG1       -0.0403
      8 C           2.2418    0.0548   -1.1983 C.ar    1  LIG1        0.0345
      9 N           1.6251    0.0641   -2.4692 N.pl3   1  LIG1       -0.3136
     10 C           0.7356   -0.8477   -2.9601 C.ar    1  LIG1        0.0454
     11 C           0.5200   -2.0816   -2.3081 C.ar    1  LIG1       -0.0397
     12 C          -0.3692   -3.0105   -2.8144 C.ar    1  LIG1       -0.0600
     13 C          -1.0851   -2.7634   -3.9932 C.ar    1  LIG1       -0.0609
     14 C          -0.8719   -1.5716   -4.6597 C.ar    1  LIG1       -0.0460
     15 C           0.0291   -0.6065   -4.1754 C.ar    1  LIG1        0.0799
     16 C           0.2417    0.6280   -4.9295 C.2     1  LIG1        0.3386
     17 O          -0.5457    0.7521   -6.0181 O.3     1  LIG1       -0.4771
     18 O           1.0488    1.5092   -4.6534 O.2     1  LIG1       -0.2451
     19 H          -0.3991    0.3676   -0.9483 H       1  LIG1        0.0278
     20 H          -0.3854    0.6423    0.7989 H       1  LIG1        0.0278
     21 H          -0.4196   -1.0023    0.1616 H       1  LIG1        0.0278
     22 H           0.8587    0.8084    2.7191 H       1  LIG1        0.0278
     23 H           2.1508   -0.2087    3.3659 H       1  LIG1        0.0278
     24 H           0.7641   -0.9428    2.5436 H       1  LIG1        0.0278
     25 H           4.1190    0.1332    2.1846 H       1  LIG1        0.0620
     26 H           5.3872    0.3700    0.0635 H       1  LIG1        0.0618
     27 H           4.1724    0.2734   -2.1085 H       1  LIG1        0.0636
     28 H           1.0860   -2.3012   -1.4080 H       1  LIG1        0.0636
     29 H          -0.5016   -3.9531   -2.2880 H       1  LIG1        0.0618
     30 H          -1.7833   -3.4975   -4.3835 H       1  LIG1        0.0618
     31 H          -1.4001   -1.3600   -5.5835 H       1  LIG1        0.0626
     32 H           1.8098    0.8531   -3.0848 H       1  LIG1        0.1522
     33 H          -0.2999    1.5982   -6.4280 H       1  LIG1        0.2954
@<TRIPOS>BOND
     1    33    17    1
     2    17    16    1
     3    31    14    1
     4    16    18    2
     5    16    15    1
     6    14    15   ar
     7    14    13   ar
     8    30    13    1
     9    15    10   ar
    10    13    12   ar
    11    32     9    1
    12    10     9    1
    13    10    11   ar
    14    12    11   ar
    15    12    29    1
    16     9     8    1
    17    11    28    1
    18    27     7    1
    19     8     7   ar
    20     8     2   ar
    21     7     6   ar
    22    19     1    1
    23     1     2    1
    24     1    21    1
    25     1    20    1
    26     2     3   ar
    27     6    26    1
    28     6     5   ar
    29     3     5   ar
    30     3     4    1
    31     5    25    1
    32     4    24    1
    33     4    22    1
    34     4    23    1
