@<TRIPOS>MOLECULE
zmat70.com
 33 34 0 0 0
SMALL
GASTEIGER
Energy = 0

@<TRIPOS>ATOM
      1 C           0.0000    0.0000    0.0000 C.3     1  LIG1       -0.0377
      2 C           1.5025    0.0000    0.0000 C.ar    1  LIG1       -0.0264
      3 C           2.2153    0.0000    1.2166 C.ar    1  LIG1       -0.0458
      4 C           1.4806    0.0071    2.5290 C.3     1  LIG1       -0.0394
      5 C           3.6105   -0.0117    1.1985 C.ar    1  LIG1       -0.0585
      6 C           4.3160   -0.0096   -0.0028 C.ar    1  LIG1       -0.0597
      7 C           3.6220    0.0174   -1.2041 C.ar    1  LIG1       -0.0403
      8 C           2.2237    0.0156   -1.2054 C.ar    1  LIG1        0.0345
      9 N           1.5375    0.0941   -2.4432 N.pl3   1  LIG1       -0.3136
     10 C           1.4872   -0.8901   -3.3855 C.ar    1  LIG1        0.0454
     11 C           2.1225   -2.1352   -3.1779 C.ar    1  LIG1       -0.0397
     12 C           2.0788   -3.1261   -4.1403 C.ar    1  LIG1       -0.0600
     13 C           1.4041   -2.9346   -5.3535 C.ar    1  LIG1       -0.0609
     14 C           0.7646   -1.7292   -5.5712 C.ar    1  LIG1       -0.0460
     15 C           0.7846   -0.6997   -4.6130 C.ar    1  LIG1        0.0799
     16 C           0.0737    0.5492   -4.8765 C.2     1  LIG1        0.3386
     17 O          -0.5107    0.6070   -6.0916 O.3     1  LIG1       -0.4771
     18 O          -0.0260    1.4974   -4.1042 O.2     1  LIG1       -0.2451
     19 H          -0.3974   -0.2556   -0.9852 H       1  LIG1        0.0278
     20 H          -0.4026    0.9846    0.2754 H       1  LIG1        0.0278
     21 H          -0.3983   -0.7191    0.7244 H       1  LIG1        0.0278
     22 H           0.7846    0.8521    2.5993 H       1  LIG1        0.0278
     23 H           2.1789    0.0770    3.3685 H       1  LIG1        0.0278
     24 H           0.8865   -0.9056    2.6673 H       1  LIG1        0.0278
     25 H           4.1524   -0.0158    2.1421 H       1  LIG1        0.0620
     26 H           5.4030   -0.0085    0.0004 H       1  LIG1        0.0618
     27 H           4.1472    0.0495   -2.1551 H       1  LIG1        0.0636
     28 H           2.6448   -2.3074   -2.2424 H       1  LIG1        0.0636
     29 H           2.5775   -4.0722   -3.9421 H       1  LIG1        0.0618
     30 H           1.3774   -3.7183   -6.1044 H       1  LIG1        0.0618
     31 H           0.2253   -1.5556   -6.4966 H       1  LIG1        0.0626
     32 H           0.9759    0.9173   -2.6478 H       1  LIG1        0.1522
     33 H          -0.9470    1.4741   -6.1343 H       1  LIG1        0.2954
@<TRIPOS>BOND
     1    31    14    1
     2    33    17    1
     3    30    13    1
     4    17    16    1
     5    14    13   ar
     6    14    15   ar
     7    13    12   ar
     8    16    15    1
     9    16    18    2
    10    15    10   ar
    11    12    29    1
    12    12    11   ar
    13    10    11   ar
    14    10     9    1
    15    11    28    1
    16    32     9    1
    17     9     8    1
    18    27     7    1
    19     8     7   ar
    20     8     2   ar
    21     7     6   ar
    22    19     1    1
    23     6    26    1
    24     6     5   ar
    25     2     1    1
    26     2     3   ar
    27     1    20    1
    28     1    21    1
    29     5     3   ar
    30     5    25    1
    31     3     4    1
    32     4    22    1
    33     4    24    1
    34     4    23    1
