@<TRIPOS>MOLECULE
zmat140.com
 33 34 0 0 0
SMALL
GASTEIGER
Energy = 0

@<TRIPOS>ATOM
      1 C           0.0000    0.0000    0.0000 C.3     1  LIG1       -0.0377
      2 C           1.5030    0.0000    0.0000 C.ar    1  LIG1       -0.0264
      3 C           2.1959    0.0000    1.2288 C.ar    1  LIG1       -0.0458
      4 C           1.4449   -0.1258    2.5273 C.3     1  LIG1       -0.0394
      5 C           3.5816    0.1633    1.2510 C.ar    1  LIG1       -0.0585
      6 C           4.2979    0.3391    0.0703 C.ar    1  LIG1       -0.0597
      7 C           3.6343    0.2890   -1.1458 C.ar    1  LIG1       -0.0403
      8 C           2.2505    0.0757   -1.1934 C.ar    1  LIG1        0.0345
      9 N           1.6620    0.0805   -2.4763 N.pl3   1  LIG1       -0.3136
     10 C           0.6788   -0.7438   -2.9475 C.ar    1  LIG1        0.0454
     11 C           0.4148   -1.9852   -2.3288 C.ar    1  LIG1       -0.0397
     12 C          -0.5553   -2.8367   -2.8214 C.ar    1  LIG1       -0.0600
     13 C          -1.3070   -2.5005   -3.9554 C.ar    1  LIG1       -0.0609
     14 C          -1.0461   -1.3021   -4.5922 C.ar    1  LIG1       -0.0460
     15 C          -0.0624   -0.4147   -4.1197 C.ar    1  LIG1        0.0799
     16 C           0.1967    0.8305   -4.8419 C.2     1  LIG1        0.3386
     17 O          -0.6369    1.0492   -5.8799 O.3     1  LIG1       -0.4771
     18 O           1.0774    1.6429   -4.5807 O.2     1  LIG1       -0.2451
     19 H          -0.4009    0.4043   -0.9325 H       1  LIG1        0.0278
     20 H          -0.3809    0.6156    0.8216 H       1  LIG1        0.0278
     21 H          -0.4260   -1.0047    0.1249 H       1  LIG1        0.0278
     22 H           0.8418    0.7677    2.7367 H       1  LIG1        0.0278
     23 H           2.1372   -0.2561    3.3647 H       1  LIG1        0.0278
     24 H           0.7574   -0.9799    2.5220 H       1  LIG1        0.0278
     25 H           4.1005    0.1727    2.2071 H       1  LIG1        0.0620
     26 H           5.3734    0.4934    0.0978 H       1  LIG1        0.0618
     27 H           4.1801    0.3792   -2.0819 H       1  LIG1        0.0636
     28 H           1.0092   -2.2729   -1.4668 H       1  LIG1        0.0636
     29 H          -0.7234   -3.7887   -2.3228 H       1  LIG1        0.0618
     30 H          -2.0686   -3.1740   -4.3364 H       1  LIG1        0.0618
     31 H          -1.6001   -1.0246   -5.4831 H       1  LIG1        0.0626
     32 H           1.8659    0.8753   -3.0786 H       1  LIG1        0.1522
     33 H          -0.3534    1.8905   -6.2750 H       1  LIG1        0.2954
@<TRIPOS>BOND
     1    33    17    1
     2    17    16    1
     3    31    14    1
     4    16    18    2
     5    16    15    1
     6    14    15   ar
     7    14    13   ar
     8    30    13    1
     9    15    10   ar
    10    13    12   ar
    11    32     9    1
    12    10     9    1
    13    10    11   ar
    14    12    11   ar
    15    12    29    1
    16     9     8    1
    17    11    28    1
    18    27     7    1
    19     8     7   ar
    20     8     2   ar
    21     7     6   ar
    22    19     1    1
    23     1     2    1
    24     1    21    1
    25     1    20    1
    26     2     3   ar
    27     6    26    1
    28     6     5   ar
    29     3     5   ar
    30     3     4    1
    31     5    25    1
    32    24     4    1
    33     4    22    1
    34     4    23    1
