@<TRIPOS>MOLECULE
zmat40.com
 33 34 0 0 0
SMALL
GASTEIGER
Energy = 0

@<TRIPOS>ATOM
      1 C           0.0000    0.0000    0.0000 C.3     1  LIG1       -0.0377
      2 C           1.5036    0.0000    0.0000 C.ar    1  LIG1       -0.0264
      3 C           2.2369    0.0000    1.2011 C.ar    1  LIG1       -0.0458
      4 C           1.5371    0.0122    2.5342 C.3     1  LIG1       -0.0394
      5 C           3.6329   -0.0189    1.1573 C.ar    1  LIG1       -0.0585
      6 C           4.3108   -0.0177   -0.0586 C.ar    1  LIG1       -0.0597
      7 C           3.5984    0.0101   -1.2491 C.ar    1  LIG1       -0.0403
      8 C           2.1994    0.0111   -1.2247 C.ar    1  LIG1        0.0345
      9 N           1.4516    0.0896   -2.4151 N.pl3   1  LIG1       -0.3136
     10 C           1.7071   -0.5298   -3.6069 C.ar    1  LIG1        0.0454
     11 C           2.5840   -1.6336   -3.6962 C.ar    1  LIG1       -0.0397
     12 C           2.8147   -2.2668   -4.9029 C.ar    1  LIG1       -0.0600
     13 C           2.1883   -1.8388   -6.0806 C.ar    1  LIG1       -0.0609
     14 C           1.3099   -0.7744   -6.0128 C.ar    1  LIG1       -0.0460
     15 C           1.0481   -0.1104   -4.8010 C.ar    1  LIG1        0.0799
     16 C           0.0882    0.9932   -4.7789 C.2     1  LIG1        0.3386
     17 O          -0.3920    1.3305   -5.9932 O.3     1  LIG1       -0.4771
     18 O          -0.2923    1.5970   -3.7811 O.2     1  LIG1       -0.2451
     19 H          -0.3917   -0.5762   -0.8446 H       1  LIG1        0.0278
     20 H          -0.4093    1.0168   -0.0866 H       1  LIG1        0.0278
     21 H          -0.4047   -0.4308    0.9195 H       1  LIG1        0.0278
     22 H           0.8474    0.8599    2.6247 H       1  LIG1        0.0278
     23 H           2.2615    0.0830    3.3512 H       1  LIG1        0.0278
     24 H           0.9484   -0.9001    2.6951 H       1  LIG1        0.0278
     25 H           4.1938   -0.0261    2.0893 H       1  LIG1        0.0620
     26 H           5.3977   -0.0147   -0.0783 H       1  LIG1        0.0618
     27 H           4.1183    0.0601   -2.2015 H       1  LIG1        0.0636
     28 H           3.0611   -2.0008   -2.7937 H       1  LIG1        0.0636
     29 H           3.4889   -3.1199   -4.9271 H       1  LIG1        0.0618
     30 H           2.3779   -2.3397   -7.0250 H       1  LIG1        0.0618
     31 H           0.7971   -0.4314   -6.9053 H       1  LIG1        0.0626
     32 H           0.7125    0.7879   -2.4616 H       1  LIG1        0.1522
     33 H          -1.0160    2.0592   -5.8390 H       1  LIG1        0.2954
@<TRIPOS>BOND
     1    30    13    1
     2    31    14    1
     3    13    14   ar
     4    13    12   ar
     5    14    15   ar
     6    17    33    1
     7    17    16    1
     8    29    12    1
     9    12    11   ar
    10    15    16    1
    11    15    10   ar
    12    16    18    2
    13    11    10   ar
    14    11    28    1
    15    10     9    1
    16    32     9    1
    17     9     8    1
    18    27     7    1
    19     7     8   ar
    20     7     6   ar
    21     8     2   ar
    22    19     1    1
    23    20     1    1
    24    26     6    1
    25     6     5   ar
    26     2     1    1
    27     2     3   ar
    28     1    21    1
    29     5     3   ar
    30     5    25    1
    31     3     4    1
    32     4    22    1
    33     4    24    1
    34     4    23    1
