@<TRIPOS>MOLECULE
zmat0.com
 33 34 0 0 0
SMALL
GASTEIGER
Energy = 0

@<TRIPOS>ATOM
      1 C           0.0000    0.0000    0.0000 C.3     1  LIG1       -0.0377
      2 C           1.5046    0.0000    0.0000 C.ar    1  LIG1       -0.0264
      3 C           2.2409    0.0000    1.1956 C.ar    1  LIG1       -0.0458
      4 C           1.5542    0.0211    2.5366 C.3     1  LIG1       -0.0394
      5 C           3.6385   -0.0275    1.1490 C.ar    1  LIG1       -0.0585
      6 C           4.3039   -0.0422   -0.0703 C.ar    1  LIG1       -0.0597
      7 C           3.5897   -0.0342   -1.2620 C.ar    1  LIG1       -0.0403
      8 C           2.1912   -0.0038   -1.2365 C.ar    1  LIG1        0.0345
      9 N           1.3963   -0.0057   -2.3965 N.pl3   1  LIG1       -0.3136
     10 C           1.8113   -0.0360   -3.7111 C.ar    1  LIG1        0.0454
     11 C           2.8436   -0.8992   -4.1311 C.ar    1  LIG1       -0.0397
     12 C           3.2314   -0.9643   -5.4579 C.ar    1  LIG1       -0.0600
     13 C           2.6009   -0.1822   -6.4317 C.ar    1  LIG1       -0.0609
     14 C           1.5600    0.6437   -6.0491 C.ar    1  LIG1       -0.0460
     15 C           1.1435    0.7296   -4.7092 C.ar    1  LIG1        0.0799
     16 C           0.0157    1.6038   -4.3670 C.2     1  LIG1        0.3386
     17 O          -0.4047    2.3775   -5.3871 O.3     1  LIG1       -0.4771
     18 O          -0.5414    1.6658   -3.2779 O.2     1  LIG1       -0.2451
     19 H          -0.3945   -0.7850   -0.6574 H       1  LIG1        0.0278
     20 H          -0.4142    0.9536   -0.3578 H       1  LIG1        0.0278
     21 H          -0.4065   -0.1702    0.9986 H       1  LIG1        0.0278
     22 H           0.8982    0.8929    2.6479 H       1  LIG1        0.0278
     23 H           2.2914    0.0571    3.3445 H       1  LIG1        0.0278
     24 H           0.9369   -0.8720    2.6958 H       1  LIG1        0.0278
     25 H           4.2039   -0.0329    2.0779 H       1  LIG1        0.0620
     26 H           5.3908   -0.0497   -0.0995 H       1  LIG1        0.0618
     27 H           4.1243    0.0051   -2.2042 H       1  LIG1        0.0636
     28 H           3.3058   -1.5556   -3.4019 H       1  LIG1        0.0636
     29 H           4.0245   -1.6517   -5.7427 H       1  LIG1        0.0618
     30 H           2.9078   -0.2360   -7.4718 H       1  LIG1        0.0618
     31 H           1.0381    1.2420   -6.7884 H       1  LIG1        0.0626
     32 H           0.5262    0.5121   -2.2943 H       1  LIG1        0.1522
     33 H          -1.1558    2.8891   -5.0427 H       1  LIG1        0.2954
@<TRIPOS>BOND
     1    30    13    1
     2    31    14    1
     3    13    14   ar
     4    13    12   ar
     5    14    15   ar
     6    29    12    1
     7    12    11   ar
     8    17    33    1
     9    17    16    1
    10    15    16    1
    11    15    10   ar
    12    16    18    2
    13    11    10   ar
    14    11    28    1
    15    10     9    1
    16     9    32    1
    17     9     8    1
    18    27     7    1
    19     7     8   ar
    20     7     6   ar
    21     8     2   ar
    22    19     1    1
    23    20     1    1
    24    26     6    1
    25     6     5   ar
    26     2     1    1
    27     2     3   ar
    28     1    21    1
    29     5     3   ar
    30     5    25    1
    31     3     4    1
    32     4    22    1
    33     4    24    1
    34     4    23    1
