@<TRIPOS>MOLECULE
zmat85.com
 33 34 0 0 0
SMALL
GASTEIGER
Energy = 0

@<TRIPOS>ATOM
      1 C           0.0000    0.0000    0.0000 C.3     1  LIG1       -0.0377
      2 C           1.5020    0.0000    0.0000 C.ar    1  LIG1       -0.0264
      3 C           2.2110    0.0000    1.2188 C.ar    1  LIG1       -0.0458
      4 C           1.4709    0.0083    2.5278 C.3     1  LIG1       -0.0394
      5 C           3.6066   -0.0075    1.2044 C.ar    1  LIG1       -0.0585
      6 C           4.3169   -0.0088    0.0063 C.ar    1  LIG1       -0.0597
      7 C           3.6252    0.0061   -1.1976 C.ar    1  LIG1       -0.0403
      8 C           2.2280    0.0086   -1.2026 C.ar    1  LIG1        0.0345
      9 N           1.5526    0.0519   -2.4527 N.pl3   1  LIG1       -0.3136
     10 C           1.2688   -1.0385   -3.2177 C.ar    1  LIG1        0.0454
     11 C           1.6666   -2.3324   -2.8112 C.ar    1  LIG1       -0.0397
     12 C           1.3867   -3.4400   -3.5889 C.ar    1  LIG1       -0.0600
     13 C           0.6999   -3.3216   -4.8049 C.ar    1  LIG1       -0.0609
     14 C           0.2970   -2.0658   -5.2178 C.ar    1  LIG1       -0.0460
     15 C           0.5624   -0.9165   -4.4514 C.ar    1  LIG1        0.0799
     16 C           0.1040    0.3898   -4.9171 C.2     1  LIG1        0.3386
     17 O          -0.5357    0.3604   -6.1053 O.3     1  LIG1       -0.4771
     18 O           0.2523    1.4559   -4.3281 O.2     1  LIG1       -0.2451
     19 H          -0.3980   -0.1421   -1.0069 H       1  LIG1        0.0278
     20 H          -0.3989    0.9473    0.3870 H       1  LIG1        0.0278
     21 H          -0.3981   -0.7961    0.6404 H       1  LIG1        0.0278
     22 H           0.7848    0.8614    2.5999 H       1  LIG1        0.0278
     23 H           2.1654    0.0648    3.3715 H       1  LIG1        0.0278
     24 H           0.8638   -0.8972    2.6566 H       1  LIG1        0.0278
     25 H           4.1451   -0.0080    2.1500 H       1  LIG1        0.0620
     26 H           5.4037   -0.0105    0.0137 H       1  LIG1        0.0618
     27 H           4.1505    0.0181   -2.1490 H       1  LIG1        0.0636
     28 H           2.2004   -2.4443   -1.8726 H       1  LIG1        0.0636
     29 H           1.7090   -4.4195   -3.2429 H       1  LIG1        0.0618
     30 H           0.4859   -4.1976   -5.4096 H       1  LIG1        0.0618
     31 H          -0.2402   -1.9436   -6.1527 H       1  LIG1        0.0626
     32 H           1.1893    0.9371   -2.7984 H       1  LIG1        0.1522
     33 H          -0.7843    1.2803   -6.2946 H       1  LIG1        0.2954
@<TRIPOS>BOND
     1    33    17    1
     2    31    14    1
     3    17    16    1
     4    30    13    1
     5    14    13   ar
     6    14    15   ar
     7    16    15    1
     8    16    18    2
     9    13    12   ar
    10    15    10   ar
    11    12    29    1
    12    12    11   ar
    13    10    11   ar
    14    10     9    1
    15    11    28    1
    16    32     9    1
    17     9     8    1
    18    27     7    1
    19     8     7   ar
    20     8     2   ar
    21     7     6   ar
    22    19     1    1
    23     2     1    1
    24     2     3   ar
    25     1    20    1
    26     1    21    1
    27     6    26    1
    28     6     5   ar
    29     5     3   ar
    30     5    25    1
    31     3     4    1
    32     4    22    1
    33     4    24    1
    34     4    23    1
