@<TRIPOS>MOLECULE
zmat5.com
 33 34 0 0 0
SMALL
GASTEIGER
Energy = 0

@<TRIPOS>ATOM
      1 C           0.0000    0.0000    0.0000 C.3     1  LIG1       -0.0377
      2 C           1.5044    0.0000    0.0000 C.ar    1  LIG1       -0.0264
      3 C           2.2417    0.0000    1.1951 C.ar    1  LIG1       -0.0458
      4 C           1.5554    0.0187    2.5363 C.3     1  LIG1       -0.0394
      5 C           3.6391   -0.0253    1.1469 C.ar    1  LIG1       -0.0585
      6 C           4.3043   -0.0359   -0.0729 C.ar    1  LIG1       -0.0597
      7 C           3.5889   -0.0257   -1.2638 C.ar    1  LIG1       -0.0403
      8 C           2.1903   -0.0019   -1.2363 C.ar    1  LIG1        0.0345
      9 N           1.3972    0.0055   -2.3969 N.pl3   1  LIG1       -0.3136
     10 C           1.8045   -0.1023   -3.7078 C.ar    1  LIG1        0.0454
     11 C           2.8226   -1.0013   -4.0871 C.ar    1  LIG1       -0.0397
     12 C           3.1998   -1.1426   -5.4107 C.ar    1  LIG1       -0.0600
     13 C           2.5746   -0.4041   -6.4216 C.ar    1  LIG1       -0.0609
     14 C           1.5491    0.4567   -6.0776 C.ar    1  LIG1       -0.0460
     15 C           1.1424    0.6200   -4.7418 C.ar    1  LIG1        0.0799
     16 C           0.0309    1.5281   -4.4394 C.2     1  LIG1        0.3386
     17 O          -0.3912    2.2469   -5.4984 O.3     1  LIG1       -0.4771
     18 O          -0.5126    1.6620   -3.3497 O.2     1  LIG1       -0.2451
     19 H          -0.3938   -0.7691   -0.6761 H       1  LIG1        0.0278
     20 H          -0.4137    0.9618   -0.3359 H       1  LIG1        0.0278
     21 H          -0.4069   -0.1928    0.9944 H       1  LIG1        0.0278
     22 H           0.8972    0.8888    2.6480 H       1  LIG1        0.0278
     23 H           2.2926    0.0560    3.3442 H       1  LIG1        0.0278
     24 H           0.9402   -0.8759    2.6951 H       1  LIG1        0.0278
     25 H           4.2053   -0.0312    2.0755 H       1  LIG1        0.0620
     26 H           5.3912   -0.0398   -0.1025 H       1  LIG1        0.0618
     27 H           4.1207    0.0184   -2.2076 H       1  LIG1        0.0636
     28 H           3.2830   -1.6218   -3.3261 H       1  LIG1        0.0636
     29 H           3.9814   -1.8555   -5.6629 H       1  LIG1        0.0618
     30 H           2.8742   -0.5178   -7.4591 H       1  LIG1        0.0618
     31 H           1.0315    1.0231   -6.8446 H       1  LIG1        0.0626
     32 H           0.5410    0.5494   -2.3118 H       1  LIG1        0.1522
     33 H          -1.1306    2.7890   -5.1757 H       1  LIG1        0.2954
@<TRIPOS>BOND
     1    30    13    1
     2    31    14    1
     3    13    14   ar
     4    13    12   ar
     5    14    15   ar
     6    29    12    1
     7    17    33    1
     8    17    16    1
     9    12    11   ar
    10    15    16    1
    11    15    10   ar
    12    16    18    2
    13    11    10   ar
    14    11    28    1
    15    10     9    1
    16     9    32    1
    17     9     8    1
    18    27     7    1
    19     7     8   ar
    20     7     6   ar
    21     8     2   ar
    22    19     1    1
    23    20     1    1
    24    26     6    1
    25     6     5   ar
    26     2     1    1
    27     2     3   ar
    28     1    21    1
    29     5     3   ar
    30     5    25    1
    31     3     4    1
    32     4    22    1
    33     4    24    1
    34     4    23    1
