@<TRIPOS>MOLECULE
zmat60.com
 33 34 0 0 0
SMALL
GASTEIGER
Energy = 0

@<TRIPOS>ATOM
      1 C           0.0000    0.0000    0.0000 C.3     1  LIG1       -0.0377
      2 C           1.5028    0.0000    0.0000 C.ar    1  LIG1       -0.0264
      3 C           2.2203    0.0000    1.2131 C.ar    1  LIG1       -0.0458
      4 C           1.4926    0.0173    2.5297 C.3     1  LIG1       -0.0394
      5 C           3.6154   -0.0224    1.1897 C.ar    1  LIG1       -0.0585
      6 C           4.3146   -0.0316   -0.0153 C.ar    1  LIG1       -0.0597
      7 C           3.6170   -0.0041   -1.2143 C.ar    1  LIG1       -0.0403
      8 C           2.2182    0.0051   -1.2101 C.ar    1  LIG1        0.0345
      9 N           1.5173    0.0856   -2.4359 N.pl3   1  LIG1       -0.3136
     10 C           1.5884   -0.8054   -3.4665 C.ar    1  LIG1        0.0454
     11 C           2.3029   -2.0184   -3.3428 C.ar    1  LIG1       -0.0397
     12 C           2.3649   -2.9190   -4.3893 C.ar    1  LIG1       -0.0600
     13 C           1.7235   -2.6643   -5.6089 C.ar    1  LIG1       -0.0609
     14 C           1.0079   -1.4904   -5.7466 C.ar    1  LIG1       -0.0460
     15 C           0.9200   -0.5527   -4.7019 C.ar    1  LIG1        0.0799
     16 C           0.1318    0.6637   -4.8875 C.2     1  LIG1        0.3386
     17 O          -0.4024    0.7933   -6.1198 O.3     1  LIG1       -0.4771
     18 O          -0.0693    1.5279   -4.0399 O.2     1  LIG1       -0.2451
     19 H          -0.3956   -0.3375   -0.9615 H       1  LIG1        0.0278
     20 H          -0.4055    1.0038    0.1899 H       1  LIG1        0.0278
     21 H          -0.3987   -0.6562    0.7808 H       1  LIG1        0.0278
     22 H           0.7924    0.8590    2.5952 H       1  LIG1        0.0278
     23 H           2.1957    0.0999    3.3640 H       1  LIG1        0.0278
     24 H           0.9052   -0.8977    2.6818 H       1  LIG1        0.0278
     25 H           4.1616   -0.0267    2.1306 H       1  LIG1        0.0620
     26 H           5.4016   -0.0375   -0.0173 H       1  LIG1        0.0618
     27 H           4.1418    0.0247   -2.1655 H       1  LIG1        0.0636
     28 H           2.7964   -2.2432   -2.4030 H       1  LIG1        0.0636
     29 H           2.9199   -3.8443   -4.2524 H       1  LIG1        0.0618
     30 H           1.7798   -3.3768   -6.4262 H       1  LIG1        0.0618
     31 H           0.4913   -1.2706   -6.6750 H       1  LIG1        0.0626
     32 H           0.9046    0.8813   -2.5999 H       1  LIG1        0.1522
     33 H          -0.8984    1.6288   -6.1068 H       1  LIG1        0.2954
@<TRIPOS>BOND
     1    31    14    1
     2    30    13    1
     3    17    33    1
     4    17    16    1
     5    14    13   ar
     6    14    15   ar
     7    13    12   ar
     8    16    15    1
     9    16    18    2
    10    15    10   ar
    11    12    29    1
    12    12    11   ar
    13    10    11   ar
    14    10     9    1
    15    11    28    1
    16    32     9    1
    17     9     8    1
    18    27     7    1
    19     7     8   ar
    20     7     6   ar
    21     8     2   ar
    22    19     1    1
    23    26     6    1
    24     6     5   ar
    25     2     1    1
    26     2     3   ar
    27     1    20    1
    28     1    21    1
    29     5     3   ar
    30     5    25    1
    31     3     4    1
    32     4    22    1
    33     4    24    1
    34     4    23    1
