@<TRIPOS>MOLECULE
zmat50.com
 33 34 0 0 0
SMALL
GASTEIGER
Energy = 0

@<TRIPOS>ATOM
      1 C           0.0000    0.0000    0.0000 C.3     1  LIG1       -0.0377
      2 C           1.5033    0.0000    0.0000 C.ar    1  LIG1       -0.0264
      3 C           2.2286    0.0000    1.2074 C.ar    1  LIG1       -0.0458
      4 C           1.5142    0.0104    2.5320 C.3     1  LIG1       -0.0394
      5 C           3.6242   -0.0171    1.1740 C.ar    1  LIG1       -0.0585
      6 C           4.3132   -0.0149   -0.0364 C.ar    1  LIG1       -0.0597
      7 C           3.6084    0.0170   -1.2310 C.ar    1  LIG1       -0.0403
      8 C           2.2093    0.0164   -1.2170 C.ar    1  LIG1        0.0345
      9 N           1.4857    0.1114   -2.4244 N.pl3   1  LIG1       -0.3136
     10 C           1.6630   -0.6364   -3.5530 C.ar    1  LIG1        0.0454
     11 C           2.4704   -1.7958   -3.5534 C.ar    1  LIG1       -0.0397
     12 C           2.6323   -2.5518   -4.6990 C.ar    1  LIG1       -0.0600
     13 C           2.0034   -2.1981   -5.9000 C.ar    1  LIG1       -0.0609
     14 C           1.1950   -1.0777   -5.9178 C.ar    1  LIG1       -0.0460
     15 C           1.0039   -0.2877   -4.7699 C.ar    1  LIG1        0.0799
     16 C           0.1194    0.8746   -4.8336 C.2     1  LIG1        0.3386
     17 O          -0.3817    1.1206   -6.0617 O.3     1  LIG1       -0.4771
     18 O          -0.1851    1.6004   -3.8923 O.2     1  LIG1       -0.2451
     19 H          -0.3935   -0.4547   -0.9138 H       1  LIG1        0.0278
     20 H          -0.4071    1.0195    0.0583 H       1  LIG1        0.0278
     21 H          -0.4017   -0.5532    0.8542 H       1  LIG1        0.0278
     22 H           0.8127    0.8498    2.6088 H       1  LIG1        0.0278
     23 H           2.2270    0.0931    3.3580 H       1  LIG1        0.0278
     24 H           0.9330   -0.9076    2.6889 H       1  LIG1        0.0278
     25 H           4.1776   -0.0238    2.1107 H       1  LIG1        0.0620
     26 H           5.4003   -0.0128   -0.0469 H       1  LIG1        0.0618
     27 H           4.1306    0.0639   -2.1827 H       1  LIG1        0.0636
     28 H           2.9527   -2.1008   -2.6306 H       1  LIG1        0.0636
     29 H           3.2557   -3.4420   -4.6560 H       1  LIG1        0.0618
     30 H           2.1391   -2.7963   -6.7959 H       1  LIG1        0.0618
     31 H           0.6841   -0.7867   -6.8296 H       1  LIG1        0.0626
     32 H           0.8025    0.8598   -2.5184 H       1  LIG1        0.1522
     33 H          -0.9498    1.9028   -5.9644 H       1  LIG1        0.2954
@<TRIPOS>BOND
     1    31    14    1
     2    30    13    1
     3    17    33    1
     4    17    16    1
     5    14    13   ar
     6    14    15   ar
     7    13    12   ar
     8    16    15    1
     9    16    18    2
    10    15    10   ar
    11    12    29    1
    12    12    11   ar
    13    11    10   ar
    14    11    28    1
    15    10     9    1
    16    32     9    1
    17     9     8    1
    18    27     7    1
    19     7     8   ar
    20     7     6   ar
    21     8     2   ar
    22    19     1    1
    23    26     6    1
    24     6     5   ar
    25     2     1    1
    26     2     3   ar
    27     1    20    1
    28     1    21    1
    29     5     3   ar
    30     5    25    1
    31     3     4    1
    32     4    22    1
    33     4    24    1
    34     4    23    1
