@<TRIPOS>MOLECULE
zmat165.com
 33 34 0 0 0
SMALL
GASTEIGER
Energy = 0

@<TRIPOS>ATOM
      1 C           0.0000    0.0000    0.0000 C.3     1  LIG1       -0.0377
      2 C           1.5052    0.0000    0.0000 C.ar    1  LIG1       -0.0264
      3 C           2.1751    0.0000    1.2444 C.ar    1  LIG1       -0.0458
      4 C           1.4055   -0.1949    2.5245 C.3     1  LIG1       -0.0394
      5 C           3.5478    0.2327    1.3110 C.ar    1  LIG1       -0.0585
      6 C           4.2750    0.4946    0.1528 C.ar    1  LIG1       -0.0597
      7 C           3.6429    0.4401   -1.0767 C.ar    1  LIG1       -0.0403
      8 C           2.2777    0.1231   -1.1757 C.ar    1  LIG1        0.0345
      9 N           1.7791    0.1175   -2.4942 N.pl3   1  LIG1       -0.3136
     10 C           0.6089   -0.3994   -2.9936 C.ar    1  LIG1        0.0454
     11 C           0.1070   -1.6275   -2.5135 C.ar    1  LIG1       -0.0397
     12 C          -1.0329   -2.1944   -3.0499 C.ar    1  LIG1       -0.0600
     13 C          -1.7204   -1.5723   -4.1007 C.ar    1  LIG1       -0.0609
     14 C          -1.2236   -0.3887   -4.6130 C.ar    1  LIG1       -0.0460
     15 C          -0.0629    0.2102   -4.0901 C.ar    1  LIG1        0.0799
     16 C           0.4447    1.4462   -4.6909 C.2     1  LIG1        0.3386
     17 O          -0.3706    1.9774   -5.6241 O.3     1  LIG1       -0.4771
     18 O           1.5071    1.9929   -4.4190 O.2     1  LIG1       -0.2451
     19 H          -0.4058    0.4841   -0.8909 H       1  LIG1        0.0278
     20 H          -0.3719    0.5528    0.8682 H       1  LIG1        0.0278
     21 H          -0.4402   -1.0050    0.0466 H       1  LIG1        0.0278
     22 H           0.7918    0.6821    2.7707 H       1  LIG1        0.0278
     23 H           2.0897   -0.3577    3.3629 H       1  LIG1        0.0278
     24 H           0.7278   -1.0548    2.4711 H       1  LIG1        0.0278
     25 H           4.0423    0.2401    2.2797 H       1  LIG1        0.0620
     26 H           5.3362    0.7230    0.2077 H       1  LIG1        0.0618
     27 H           4.2082    0.5933   -1.9934 H       1  LIG1        0.0636
     28 H           0.6561   -2.1361   -1.7267 H       1  LIG1        0.0636
     29 H          -1.3852   -3.1466   -2.6597 H       1  LIG1        0.0618
     30 H          -2.6153   -2.0216   -4.5205 H       1  LIG1        0.0618
     31 H          -1.7240    0.1001   -5.4425 H       1  LIG1        0.0626
     32 H           2.1370    0.8792   -3.0683 H       1  LIG1        0.1522
     33 H           0.0826    2.7716   -5.9530 H       1  LIG1        0.2954
@<TRIPOS>BOND
     1    33    17    1
     2    17    16    1
     3    31    14    1
     4    16    18    2
     5    16    15    1
     6    14    13   ar
     7    14    15   ar
     8    30    13    1
     9    13    12   ar
    10    15    10   ar
    11    32     9    1
    12    12    29    1
    13    12    11   ar
    14    10    11   ar
    15    10     9    1
    16    11    28    1
    17     9     8    1
    18    27     7    1
    19     8     7   ar
    20     8     2   ar
    21     7     6   ar
    22    19     1    1
    23     1     2    1
    24     1    21    1
    25     1    20    1
    26     2     3   ar
    27     6    26    1
    28     6     5   ar
    29     3     5   ar
    30     3     4    1
    31     5    25    1
    32    24     4    1
    33     4    22    1
    34     4    23    1
