@<TRIPOS>MOLECULE
zmat35.com
 33 34 0 0 0
SMALL
GASTEIGER
Energy = 0

@<TRIPOS>ATOM
      1 C           0.0000    0.0000    0.0000 C.3     1  LIG1       -0.0377
      2 C           1.5037    0.0000    0.0000 C.ar    1  LIG1       -0.0264
      3 C           2.2394    0.0000    1.1991 C.ar    1  LIG1       -0.0458
      4 C           1.5444    0.0136    2.5349 C.3     1  LIG1       -0.0394
      5 C           3.6355   -0.0205    1.1522 C.ar    1  LIG1       -0.0585
      6 C           4.3097   -0.0212   -0.0653 C.ar    1  LIG1       -0.0597
      7 C           3.5951    0.0037   -1.2549 C.ar    1  LIG1       -0.0403
      8 C           2.1961    0.0071   -1.2274 C.ar    1  LIG1        0.0345
      9 N           1.4385    0.0750   -2.4113 N.pl3   1  LIG1       -0.3136
     10 C           1.7287   -0.4790   -3.6283 C.ar    1  LIG1        0.0454
     11 C           2.6278   -1.5608   -3.7545 C.ar    1  LIG1       -0.0397
     12 C           2.8892   -2.1332   -4.9853 C.ar    1  LIG1       -0.0600
     13 C           2.2719   -1.6631   -6.1514 C.ar    1  LIG1       -0.0609
     14 C           1.3708   -0.6208   -6.0483 C.ar    1  LIG1       -0.0460
     15 C           1.0781   -0.0187   -4.8115 C.ar    1  LIG1        0.0799
     16 C           0.0954    1.0640   -4.7545 C.2     1  LIG1        0.3386
     17 O          -0.3690    1.4501   -5.9604 O.3     1  LIG1       -0.4771
     18 O          -0.3156    1.6110   -3.7364 O.2     1  LIG1       -0.2451
     19 H          -0.3910   -0.6192   -0.8145 H       1  LIG1        0.0278
     20 H          -0.4100    1.0106   -0.1405 H       1  LIG1        0.0278
     21 H          -0.4058   -0.3826    0.9396 H       1  LIG1        0.0278
     22 H           0.8612    0.8660    2.6309 H       1  LIG1        0.0278
     23 H           2.2728    0.0775    3.3490 H       1  LIG1        0.0278
     24 H           0.9505   -0.8952    2.6963 H       1  LIG1        0.0278
     25 H           4.1988   -0.0276    2.0827 H       1  LIG1        0.0620
     26 H           5.3966   -0.0189   -0.0882 H       1  LIG1        0.0618
     27 H           4.1152    0.0527   -2.2070 H       1  LIG1        0.0636
     28 H           3.0957   -1.9624   -2.8621 H       1  LIG1        0.0636
     29 H           3.5795   -2.9720   -5.0379 H       1  LIG1        0.0618
     30 H           2.4850   -2.1162   -7.1148 H       1  LIG1        0.0618
     31 H           0.8635   -0.2477   -6.9318 H       1  LIG1        0.0626
     32 H           0.6839    0.7577   -2.4412 H       1  LIG1        0.1522
     33 H          -1.0112    2.1576   -5.7837 H       1  LIG1        0.2954
@<TRIPOS>BOND
     1    30    13    1
     2    31    14    1
     3    13    14   ar
     4    13    12   ar
     5    14    15   ar
     6    17    33    1
     7    17    16    1
     8    29    12    1
     9    12    11   ar
    10    15    16    1
    11    15    10   ar
    12    16    18    2
    13    11    10   ar
    14    11    28    1
    15    10     9    1
    16    32     9    1
    17     9     8    1
    18    27     7    1
    19     7     8   ar
    20     7     6   ar
    21     8     2   ar
    22    19     1    1
    23    20     1    1
    24    26     6    1
    25     6     5   ar
    26     2     1    1
    27     2     3   ar
    28     1    21    1
    29     5     3   ar
    30     5    25    1
    31     3     4    1
    32     4    22    1
    33     4    24    1
    34     4    23    1
