@<TRIPOS>MOLECULE
zmat170.com
 33 34 0 0 0
SMALL
GASTEIGER
Energy = 0

@<TRIPOS>ATOM
      1 C           0.0000    0.0000    0.0000 C.3     1  LIG1       -0.0377
      2 C           1.5056    0.0000    0.0000 C.ar    1  LIG1       -0.0264
      3 C           2.1730    0.0000    1.2460 C.ar    1  LIG1       -0.0458
      4 C           1.4023   -0.2081    2.5235 C.3     1  LIG1       -0.0394
      5 C           3.5426    0.2476    1.3182 C.ar    1  LIG1       -0.0585
      6 C           4.2681    0.5277    0.1630 C.ar    1  LIG1       -0.0597
      7 C           3.6402    0.4703   -1.0681 C.ar    1  LIG1       -0.0403
      8 C           2.2810    0.1283   -1.1740 C.ar    1  LIG1        0.0345
      9 N           1.7974    0.1029   -2.4980 N.pl3   1  LIG1       -0.3136
     10 C           0.6014   -0.3563   -2.9986 C.ar    1  LIG1        0.0454
     11 C           0.0586   -1.5734   -2.5365 C.ar    1  LIG1       -0.0397
     12 C          -1.1046   -2.0900   -3.0738 C.ar    1  LIG1       -0.0600
     13 C          -1.7742   -1.4255   -4.1102 C.ar    1  LIG1       -0.0609
     14 C          -1.2370   -0.2530   -4.6071 C.ar    1  LIG1       -0.0460
     15 C          -0.0520    0.2945   -4.0817 C.ar    1  LIG1        0.0799
     16 C           0.4995    1.5196   -4.6674 C.2     1  LIG1        0.3386
     17 O          -0.3059    2.1017   -5.5783 O.3     1  LIG1       -0.4771
     18 O           1.5879    2.0148   -4.4017 O.2     1  LIG1       -0.2451
     19 H          -0.4060    0.4967   -0.8837 H       1  LIG1        0.0278
     20 H          -0.3703    0.5429    0.8752 H       1  LIG1        0.0278
     21 H          -0.4432   -1.0042    0.0348 H       1  LIG1        0.0278
     22 H           0.7868    0.6655    2.7775 H       1  LIG1        0.0278
     23 H           2.0865   -0.3769    3.3607 H       1  LIG1        0.0278
     24 H           0.7266   -1.0689    2.4620 H       1  LIG1        0.0278
     25 H           4.0346    0.2553    2.2881 H       1  LIG1        0.0620
     26 H           5.3253    0.7735    0.2216 H       1  LIG1        0.0618
     27 H           4.2072    0.6358   -1.9818 H       1  LIG1        0.0636
     28 H           0.5951   -2.1145   -1.7628 H       1  LIG1        0.0636
     29 H          -1.4889   -3.0353   -2.6977 H       1  LIG1        0.0618
     30 H          -2.6870   -1.8349   -4.5322 H       1  LIG1        0.0618
     31 H          -1.7232    0.2664   -5.4263 H       1  LIG1        0.0626
     32 H           2.1845    0.8480   -3.0749 H       1  LIG1        0.1522
     33 H           0.1758    2.8819   -5.9005 H       1  LIG1        0.2954
@<TRIPOS>BOND
     1    33    17    1
     2    17    16    1
     3    31    14    1
     4    16    18    2
     5    16    15    1
     6    14    13   ar
     7    14    15   ar
     8    30    13    1
     9    13    12   ar
    10    15    10   ar
    11    32     9    1
    12    12    29    1
    13    12    11   ar
    14    10    11   ar
    15    10     9    1
    16    11    28    1
    17     9     8    1
    18    27     7    1
    19     8     7   ar
    20     8     2   ar
    21     7     6   ar
    22    19     1    1
    23     1     2    1
    24     1    21    1
    25     1    20    1
    26     2     3   ar
    27     6    26    1
    28     6     5   ar
    29     3     5   ar
    30     3     4    1
    31     5    25    1
    32    24     4    1
    33     4    22    1
    34     4    23    1
