@<TRIPOS>MOLECULE
zmat115.com
 33 34 0 0 0
SMALL
GASTEIGER
Energy = 0

@<TRIPOS>ATOM
      1 C           0.0000    0.0000    0.0000 C.3     1  LIG1       -0.0377
      2 C           1.5019    0.0000    0.0000 C.ar    1  LIG1       -0.0264
      3 C           2.2089    0.0000    1.2193 C.ar    1  LIG1       -0.0458
      4 C           1.4687   -0.0495    2.5282 C.3     1  LIG1       -0.0394
      5 C           3.6032    0.0710    1.2129 C.ar    1  LIG1       -0.0585
      6 C           4.3136    0.1414    0.0178 C.ar    1  LIG1       -0.0597
      7 C           3.6276    0.1110   -1.1886 C.ar    1  LIG1       -0.0403
      8 C           2.2316    0.0300   -1.2027 C.ar    1  LIG1        0.0345
      9 N           1.5811    0.0455   -2.4603 N.pl3   1  LIG1       -0.3136
     10 C           0.8572   -0.9760   -3.0029 C.ar    1  LIG1        0.0454
     11 C           0.7039   -2.2051   -2.3246 C.ar    1  LIG1       -0.0397
     12 C          -0.0418   -3.2329   -2.8712 C.ar    1  LIG1       -0.0600
     13 C          -0.6694   -3.0938   -4.1159 C.ar    1  LIG1       -0.0609
     14 C          -0.5166   -1.9054   -4.8049 C.ar    1  LIG1       -0.0460
     15 C           0.2387   -0.8412   -4.2814 C.ar    1  LIG1        0.0799
     16 C           0.3970    0.3861   -5.0598 C.2     1  LIG1        0.3386
     17 O          -0.2854    0.3929   -6.2240 O.3     1  LIG1       -0.4771
     18 O           1.0774    1.3561   -4.7430 O.2     1  LIG1       -0.2451
     19 H          -0.3963    0.2955   -0.9742 H       1  LIG1        0.0278
     20 H          -0.3915    0.6944    0.7516 H       1  LIG1        0.0278
     21 H          -0.4106   -0.9915    0.2350 H       1  LIG1        0.0278
     22 H           0.8733    0.8584    2.6919 H       1  LIG1        0.0278
     23 H           2.1646   -0.1424    3.3675 H       1  LIG1        0.0278
     24 H           0.7734   -0.8967    2.5714 H       1  LIG1        0.0278
     25 H           4.1379    0.0777    2.1605 H       1  LIG1        0.0620
     26 H           5.3987    0.2034    0.0276 H       1  LIG1        0.0618
     27 H           4.1606    0.1365   -2.1358 H       1  LIG1        0.0636
     28 H           1.1997   -2.3397   -1.3683 H       1  LIG1        0.0636
     29 H          -0.1314   -4.1671   -2.3213 H       1  LIG1        0.0618
     30 H          -1.2552   -3.9053   -4.5368 H       1  LIG1        0.0618
     31 H          -0.9792   -1.7743   -5.7776 H       1  LIG1        0.0626
     32 H           1.7510    0.8301   -3.0852 H       1  LIG1        0.1522
     33 H          -0.0897    1.2486   -6.6408 H       1  LIG1        0.2954
@<TRIPOS>BOND
     1    33    17    1
     2    17    16    1
     3    31    14    1
     4    16    18    2
     5    16    15    1
     6    14    15   ar
     7    14    13   ar
     8    30    13    1
     9    15    10   ar
    10    13    12   ar
    11    32     9    1
    12    10     9    1
    13    10    11   ar
    14    12    11   ar
    15    12    29    1
    16     9     8    1
    17    11    28    1
    18    27     7    1
    19     8     7   ar
    20     8     2   ar
    21     7     6   ar
    22    19     1    1
    23     1     2    1
    24     1    21    1
    25     1    20    1
    26     2     3   ar
    27     6    26    1
    28     6     5   ar
    29     5     3   ar
    30     5    25    1
    31     3     4    1
    32     4    24    1
    33     4    22    1
    34     4    23    1
