@<TRIPOS>MOLECULE
zmat10.com
 33 34 0 0 0
SMALL
GASTEIGER
Energy = 0

@<TRIPOS>ATOM
      1 C           0.0000    0.0000    0.0000 C.3     1  LIG1       -0.0377
      2 C           1.5042    0.0000    0.0000 C.ar    1  LIG1       -0.0264
      3 C           2.2417    0.0000    1.1953 C.ar    1  LIG1       -0.0458
      4 C           1.5546    0.0153    2.5361 C.3     1  LIG1       -0.0394
      5 C           3.6389   -0.0227    1.1466 C.ar    1  LIG1       -0.0585
      6 C           4.3049   -0.0282   -0.0733 C.ar    1  LIG1       -0.0597
      7 C           3.5892   -0.0141   -1.2637 C.ar    1  LIG1       -0.0403
      8 C           2.1904    0.0030   -1.2353 C.ar    1  LIG1        0.0345
      9 N           1.4013    0.0246   -2.3983 N.pl3   1  LIG1       -0.3136
     10 C           1.8002   -0.1546   -3.7023 C.ar    1  LIG1        0.0454
     11 C           2.8018   -1.0877   -4.0423 C.ar    1  LIG1       -0.0397
     12 C           3.1696   -1.2978   -5.3592 C.ar    1  LIG1       -0.0600
     13 C           2.5529   -0.5968   -6.4020 C.ar    1  LIG1       -0.0609
     14 C           1.5450    0.2981   -6.0951 C.ar    1  LIG1       -0.0460
     15 C           1.1471    0.5313   -4.7669 C.ar    1  LIG1        0.0799
     16 C           0.0547    1.4727   -4.5025 C.2     1  LIG1        0.3386
     17 O          -0.3650    2.1445   -5.5930 O.3     1  LIG1       -0.4771
     18 O          -0.4762    1.6722   -3.4162 O.2     1  LIG1       -0.2451
     19 H          -0.3930   -0.7443   -0.7031 H       1  LIG1        0.0278
     20 H          -0.4131    0.9733   -0.3021 H       1  LIG1        0.0278
     21 H          -0.4070   -0.2273    0.9873 H       1  LIG1        0.0278
     22 H           0.8906    0.8811    2.6464 H       1  LIG1        0.0278
     23 H           2.2908    0.0576    3.3446 H       1  LIG1        0.0278
     24 H           0.9448   -0.8832    2.6947 H       1  LIG1        0.0278
     25 H           4.2052   -0.0295    2.0751 H       1  LIG1        0.0620
     26 H           5.3918   -0.0286   -0.1023 H       1  LIG1        0.0618
     27 H           4.1187    0.0354   -2.2089 H       1  LIG1        0.0636
     28 H           3.2582   -1.6766   -3.2542 H       1  LIG1        0.0636
     29 H           3.9380   -2.0348   -5.5804 H       1  LIG1        0.0618
     30 H           2.8461   -0.7644   -7.4339 H       1  LIG1        0.0618
     31 H           1.0349    0.8378   -6.8860 H       1  LIG1        0.0626
     32 H           0.5606    0.5946   -2.3301 H       1  LIG1        0.1522
     33 H          -1.0910    2.7159   -5.2915 H       1  LIG1        0.2954
@<TRIPOS>BOND
     1    30    13    1
     2    31    14    1
     3    13    14   ar
     4    13    12   ar
     5    14    15   ar
     6    17    33    1
     7    17    16    1
     8    29    12    1
     9    12    11   ar
    10    15    16    1
    11    15    10   ar
    12    16    18    2
    13    11    10   ar
    14    11    28    1
    15    10     9    1
    16     9    32    1
    17     9     8    1
    18    27     7    1
    19     7     8   ar
    20     7     6   ar
    21     8     2   ar
    22    19     1    1
    23    20     1    1
    24    26     6    1
    25     6     5   ar
    26     2     1    1
    27     2     3   ar
    28     1    21    1
    29     5     3   ar
    30     5    25    1
    31     3     4    1
    32     4    22    1
    33     4    24    1
    34     4    23    1
