@<TRIPOS>MOLECULE
zmat105.com
 33 34 0 0 0
SMALL
GASTEIGER
Energy = 0

@<TRIPOS>ATOM
      1 C           0.0000    0.0000    0.0000 C.3     1  LIG1       -0.0377
      2 C           1.5017    0.0000    0.0000 C.ar    1  LIG1       -0.0264
      3 C           2.2124    0.0000    1.2171 C.ar    1  LIG1       -0.0458
      4 C           1.4753   -0.0242    2.5282 C.3     1  LIG1       -0.0394
      5 C           3.6080    0.0388    1.2031 C.ar    1  LIG1       -0.0585
      6 C           4.3157    0.0740    0.0047 C.ar    1  LIG1       -0.0597
      7 C           3.6239    0.0514   -1.1990 C.ar    1  LIG1       -0.0403
      8 C           2.2268    0.0140   -1.2045 C.ar    1  LIG1        0.0345
      9 N           1.5582    0.0256   -2.4561 N.pl3   1  LIG1       -0.3136
     10 C           0.9625   -1.0553   -3.0381 C.ar    1  LIG1        0.0454
     11 C           0.8853   -2.2945   -2.3653 C.ar    1  LIG1       -0.0397
     12 C           0.2587   -3.3821   -2.9449 C.ar    1  LIG1       -0.0600
     13 C          -0.3196   -3.2951   -4.2179 C.ar    1  LIG1       -0.0609
     14 C          -0.2428   -2.0949   -4.8992 C.ar    1  LIG1       -0.0460
     15 C           0.3899   -0.9697   -4.3419 C.ar    1  LIG1        0.0799
     16 C           0.4703    0.2714   -5.1100 C.2     1  LIG1        0.3386
     17 O          -0.1485    0.2197   -6.3083 O.3     1  LIG1       -0.4771
     18 O           1.0371    1.3002   -4.7574 O.2     1  LIG1       -0.2451
     19 H          -0.3945    0.2484   -0.9878 H       1  LIG1        0.0278
     20 H          -0.3950    0.7264    0.7192 H       1  LIG1        0.0278
     21 H          -0.4052   -0.9814    0.2821 H       1  LIG1        0.0278
     22 H           0.8814    0.8873    2.6759 H       1  LIG1        0.0278
     23 H           2.1721   -0.1038    3.3680 H       1  LIG1        0.0278
     24 H           0.7784   -0.8691    2.5875 H       1  LIG1        0.0278
     25 H           4.1468    0.0440    2.1484 H       1  LIG1        0.0620
     26 H           5.4021    0.1057    0.0104 H       1  LIG1        0.0618
     27 H           4.1522    0.0561   -2.1490 H       1  LIG1        0.0636
     28 H           1.3410   -2.3860   -1.3843 H       1  LIG1        0.0636
     29 H           0.2230   -4.3213   -2.3974 H       1  LIG1        0.0618
     30 H          -0.8111   -4.1538   -4.6648 H       1  LIG1        0.0618
     31 H          -0.6716   -2.0013   -5.8916 H       1  LIG1        0.0626
     32 H           1.6813    0.8293   -3.0675 H       1  LIG1        0.1522
     33 H          -0.0156    1.0931   -6.7129 H       1  LIG1        0.2954
@<TRIPOS>BOND
     1    33    17    1
     2    17    16    1
     3    31    14    1
     4    16    18    2
     5    16    15    1
     6    14    15   ar
     7    14    13   ar
     8    30    13    1
     9    15    10   ar
    10    13    12   ar
    11    32     9    1
    12    10     9    1
    13    10    11   ar
    14    12    29    1
    15    12    11   ar
    16     9     8    1
    17    11    28    1
    18    27     7    1
    19     8     7   ar
    20     8     2   ar
    21     7     6   ar
    22    19     1    1
    23     1     2    1
    24     1    21    1
    25     1    20    1
    26     2     3   ar
    27     6    26    1
    28     6     5   ar
    29     5     3   ar
    30     5    25    1
    31     3     4    1
    32     4    24    1
    33     4    22    1
    34     4    23    1
