@<TRIPOS>MOLECULE
zmat155.com
 33 34 0 0 0
SMALL
GASTEIGER
Energy = 0

@<TRIPOS>ATOM
      1 C           0.0000    0.0000    0.0000 C.3     1  LIG1       -0.0377
      2 C           1.5042    0.0000    0.0000 C.ar    1  LIG1       -0.0264
      3 C           2.1834    0.0000    1.2381 C.ar    1  LIG1       -0.0458
      4 C           1.4218   -0.1753    2.5253 C.3     1  LIG1       -0.0394
      5 C           3.5606    0.2140    1.2872 C.ar    1  LIG1       -0.0585
      6 C           4.2822    0.4521    0.1205 C.ar    1  LIG1       -0.0597
      7 C           3.6377    0.3994   -1.1039 C.ar    1  LIG1       -0.0403
      8 C           2.2662    0.1131   -1.1829 C.ar    1  LIG1        0.0345
      9 N           1.7291    0.1213   -2.4868 N.pl3   1  LIG1       -0.3136
     10 C           0.6247   -0.5327   -2.9667 C.ar    1  LIG1        0.0454
     11 C           0.2419   -1.7822   -2.4332 C.ar    1  LIG1       -0.0397
     12 C          -0.8343   -2.4798   -2.9466 C.ar    1  LIG1       -0.0600
     13 C          -1.5774   -1.9730   -4.0215 C.ar    1  LIG1       -0.0609
     14 C          -1.1999   -0.7666   -4.5799 C.ar    1  LIG1       -0.0460
     15 C          -0.1055   -0.0350   -4.0833 C.ar    1  LIG1        0.0799
     16 C           0.2769    1.2223   -4.7281 C.2     1  LIG1        0.3386
     17 O          -0.5732    1.6249   -5.6945 O.3     1  LIG1       -0.4771
     18 O           1.2684    1.8926   -4.4635 O.2     1  LIG1       -0.2451
     19 H          -0.4036    0.4569   -0.9065 H       1  LIG1        0.0278
     20 H          -0.3751    0.5746    0.8528 H       1  LIG1        0.0278
     21 H          -0.4352   -1.0058    0.0722 H       1  LIG1        0.0278
     22 H           0.8106    0.7061    2.7612 H       1  LIG1        0.0278
     23 H           2.1097   -0.3275    3.3626 H       1  LIG1        0.0278
     24 H           0.7420   -1.0344    2.4871 H       1  LIG1        0.0278
     25 H           4.0649    0.2221    2.2509 H       1  LIG1        0.0620
     26 H           5.3483    0.6589    0.1651 H       1  LIG1        0.0618
     27 H           4.1943    0.5349   -2.0285 H       1  LIG1        0.0636
     28 H           0.8318   -2.2006   -1.6231 H       1  LIG1        0.0636
     29 H          -1.0929   -3.4444   -2.5159 H       1  LIG1        0.0618
     30 H          -2.4225   -2.5253   -4.4211 H       1  LIG1        0.0618
     31 H          -1.7446   -0.3618   -5.4265 H       1  LIG1        0.0626
     32 H           2.0072    0.9129   -3.0642 H       1  LIG1        0.1522
     33 H          -0.2023    2.4506   -6.0483 H       1  LIG1        0.2954
@<TRIPOS>BOND
     1    33    17    1
     2    17    16    1
     3    31    14    1
     4    16    18    2
     5    16    15    1
     6    14    15   ar
     7    14    13   ar
     8    30    13    1
     9    15    10   ar
    10    13    12   ar
    11    32     9    1
    12    10     9    1
    13    10    11   ar
    14    12    29    1
    15    12    11   ar
    16     9     8    1
    17    11    28    1
    18    27     7    1
    19     8     7   ar
    20     8     2   ar
    21     7     6   ar
    22    19     1    1
    23     1     2    1
    24     1    21    1
    25     1    20    1
    26     2     3   ar
    27     6    26    1
    28     6     5   ar
    29     3     5   ar
    30     3     4    1
    31     5    25    1
    32    24     4    1
    33     4    22    1
    34     4    23    1
