@<TRIPOS>MOLECULE
zmat110.com
 33 34 0 0 0
SMALL
GASTEIGER
Energy = 0

@<TRIPOS>ATOM
      1 C           0.0000    0.0000    0.0000 C.3     1  LIG1       -0.0377
      2 C           1.5018    0.0000    0.0000 C.ar    1  LIG1       -0.0264
      3 C           2.2108    0.0000    1.2181 C.ar    1  LIG1       -0.0458
      4 C           1.4723   -0.0364    2.5281 C.3     1  LIG1       -0.0394
      5 C           3.6059    0.0542    1.2076 C.ar    1  LIG1       -0.0585
      6 C           4.3149    0.1061    0.0107 C.ar    1  LIG1       -0.0597
      7 C           3.6258    0.0800   -1.1943 C.ar    1  LIG1       -0.0403
      8 C           2.2290    0.0222   -1.2037 C.ar    1  LIG1        0.0345
      9 N           1.5689    0.0378   -2.4580 N.pl3   1  LIG1       -0.3136
     10 C           0.9069   -1.0144   -3.0206 C.ar    1  LIG1        0.0454
     11 C           0.7850   -2.2474   -2.3430 C.ar    1  LIG1       -0.0397
     12 C           0.0959   -3.3052   -2.9064 C.ar    1  LIG1       -0.0600
     13 C          -0.5038   -3.1934   -4.1675 C.ar    1  LIG1       -0.0609
     14 C          -0.3826   -2.0003   -4.8546 C.ar    1  LIG1       -0.0460
     15 C           0.3145   -0.9054   -4.3140 C.ar    1  LIG1        0.0799
     16 C           0.4409    0.3273   -5.0896 C.2     1  LIG1        0.3386
     17 O          -0.2065    0.3032   -6.2733 O.3     1  LIG1       -0.4771
     18 O           1.0675    1.3269   -4.7545 O.2     1  LIG1       -0.2451
     19 H          -0.3954    0.2716   -0.9815 H       1  LIG1        0.0278
     20 H          -0.3933    0.7108    0.7353 H       1  LIG1        0.0278
     21 H          -0.4078   -0.9867    0.2590 H       1  LIG1        0.0278
     22 H           0.8774    0.8732    2.6835 H       1  LIG1        0.0278
     23 H           2.1686   -0.1223    3.3678 H       1  LIG1        0.0278
     24 H           0.7762   -0.8826    2.5797 H       1  LIG1        0.0278
     25 H           4.1428    0.0601    2.1540 H       1  LIG1        0.0620
     26 H           5.4008    0.1519    0.0182 H       1  LIG1        0.0618
     27 H           4.1564    0.0947   -2.1430 H       1  LIG1        0.0636
     28 H           1.2582   -2.3595   -1.3724 H       1  LIG1        0.0636
     29 H           0.0283   -4.2410   -2.3560 H       1  LIG1        0.0618
     30 H          -1.0450   -4.0286   -4.6015 H       1  LIG1        0.0618
     31 H          -0.8255   -1.8890   -5.8389 H       1  LIG1        0.0626
     32 H           1.7215    0.8298   -3.0781 H       1  LIG1        0.1522
     33 H          -0.0378    1.1669   -6.6852 H       1  LIG1        0.2954
@<TRIPOS>BOND
     1    33    17    1
     2    17    16    1
     3    31    14    1
     4    16    18    2
     5    16    15    1
     6    14    15   ar
     7    14    13   ar
     8    30    13    1
     9    15    10   ar
    10    13    12   ar
    11    32     9    1
    12    10     9    1
    13    10    11   ar
    14    12    29    1
    15    12    11   ar
    16     9     8    1
    17    11    28    1
    18    27     7    1
    19     8     7   ar
    20     8     2   ar
    21     7     6   ar
    22    19     1    1
    23     1     2    1
    24     1    21    1
    25     1    20    1
    26     2     3   ar
    27     6    26    1
    28     6     5   ar
    29     5     3   ar
    30     5    25    1
    31     3     4    1
    32     4    24    1
    33     4    22    1
    34     4    23    1
