@<TRIPOS>MOLECULE
zmat65.com
 33 34 0 0 0
SMALL
GASTEIGER
Energy = 0

@<TRIPOS>ATOM
      1 C           0.0000    0.0000    0.0000 C.3     1  LIG1       -0.0377
      2 C           1.5027    0.0000    0.0000 C.ar    1  LIG1       -0.0264
      3 C           2.2196    0.0000    1.2137 C.ar    1  LIG1       -0.0458
      4 C           1.4911    0.0143    2.5298 C.3     1  LIG1       -0.0394
      5 C           3.6148   -0.0180    1.1906 C.ar    1  LIG1       -0.0585
      6 C           4.3153   -0.0218   -0.0137 C.ar    1  LIG1       -0.0597
      7 C           3.6177    0.0063   -1.2127 C.ar    1  LIG1       -0.0403
      8 C           2.2192    0.0100   -1.2090 C.ar    1  LIG1        0.0345
      9 N           1.5232    0.0889   -2.4391 N.pl3   1  LIG1       -0.3136
     10 C           1.5331   -0.8520   -3.4263 C.ar    1  LIG1        0.0454
     11 C           2.2162   -2.0784   -3.2647 C.ar    1  LIG1       -0.0397
     12 C           2.2258   -3.0265   -4.2701 C.ar    1  LIG1       -0.0600
     13 C           1.5603   -2.8085   -5.4839 C.ar    1  LIG1       -0.0609
     14 C           0.8745   -1.6216   -5.6575 C.ar    1  LIG1       -0.0460
     15 C           0.8399   -0.6358   -4.6549 C.ar    1  LIG1        0.0799
     16 C           0.0808    0.5931   -4.8751 C.2     1  LIG1        0.3386
     17 O          -0.4861    0.6813   -6.0965 O.3     1  LIG1       -0.4771
     18 O          -0.0709    1.5008   -4.0635 O.2     1  LIG1       -0.2451
     19 H          -0.3959   -0.3263   -0.9651 H       1  LIG1        0.0278
     20 H          -0.4043    1.0020    0.2011 H       1  LIG1        0.0278
     21 H          -0.3990   -0.6645    0.7738 H       1  LIG1        0.0278
     22 H           0.7926    0.8573    2.5974 H       1  LIG1        0.0278
     23 H           2.1938    0.0930    3.3649 H       1  LIG1        0.0278
     24 H           0.9016   -0.8999    2.6786 H       1  LIG1        0.0278
     25 H           4.1604   -0.0224    2.1320 H       1  LIG1        0.0620
     26 H           5.4023   -0.0245   -0.0147 H       1  LIG1        0.0618
     27 H           4.1412    0.0377   -2.1647 H       1  LIG1        0.0636
     28 H           2.7301   -2.2731   -2.3289 H       1  LIG1        0.0636
     29 H           2.7590   -3.9601   -4.1053 H       1  LIG1        0.0618
     30 H           1.5758   -3.5582   -6.2690 H       1  LIG1        0.0618
     31 H           0.3405   -1.4288   -6.5822 H       1  LIG1        0.0626
     32 H           0.9267    0.8934   -2.6181 H       1  LIG1        0.1522
     33 H          -0.9576    1.5307   -6.1086 H       1  LIG1        0.2954
@<TRIPOS>BOND
     1    31    14    1
     2    30    13    1
     3    33    17    1
     4    17    16    1
     5    14    13   ar
     6    14    15   ar
     7    13    12   ar
     8    16    15    1
     9    16    18    2
    10    15    10   ar
    11    12    29    1
    12    12    11   ar
    13    10    11   ar
    14    10     9    1
    15    11    28    1
    16    32     9    1
    17     9     8    1
    18    27     7    1
    19     7     8   ar
    20     7     6   ar
    21     8     2   ar
    22    19     1    1
    23    26     6    1
    24     6     5   ar
    25     2     1    1
    26     2     3   ar
    27     1    20    1
    28     1    21    1
    29     5     3   ar
    30     5    25    1
    31     3     4    1
    32     4    22    1
    33     4    24    1
    34     4    23    1
