@<TRIPOS>MOLECULE
zmat125.com
 33 34 0 0 0
SMALL
GASTEIGER
Energy = 0

@<TRIPOS>ATOM
      1 C           0.0000    0.0000    0.0000 C.3     1  LIG1       -0.0377
      2 C           1.5023    0.0000    0.0000 C.ar    1  LIG1       -0.0264
      3 C           2.2045    0.0000    1.2225 C.ar    1  LIG1       -0.0458
      4 C           1.4605   -0.0772    2.5282 C.3     1  LIG1       -0.0394
      5 C           3.5965    0.1061    1.2257 C.ar    1  LIG1       -0.0585
      6 C           4.3096    0.2156    0.0352 C.ar    1  LIG1       -0.0597
      7 C           3.6314    0.1764   -1.1746 C.ar    1  LIG1       -0.0403
      8 C           2.2385    0.0454   -1.1998 C.ar    1  LIG1        0.0345
      9 N           1.6101    0.0563   -2.4660 N.pl3   1  LIG1       -0.3136
     10 C           0.7729   -0.8952   -2.9718 C.ar    1  LIG1        0.0454
     11 C           0.5758   -2.1248   -2.3059 C.ar    1  LIG1       -0.0397
     12 C          -0.2688   -3.0890   -2.8230 C.ar    1  LIG1       -0.0600
     13 C          -0.9565   -2.8830   -4.0263 C.ar    1  LIG1       -0.0609
     14 C          -0.7611   -1.6953   -4.7052 C.ar    1  LIG1       -0.0460
     15 C           0.0946   -0.6950   -4.2107 C.ar    1  LIG1        0.0799
     16 C           0.2920    0.5332   -4.9788 C.2     1  LIG1        0.3386
     17 O          -0.4614    0.6129   -6.0953 O.3     1  LIG1       -0.4771
     18 O           1.0601    1.4453   -4.6917 O.2     1  LIG1       -0.2451
     19 H          -0.3984    0.3423   -0.9580 H       1  LIG1        0.0278
     20 H          -0.3874    0.6611    0.7827 H       1  LIG1        0.0278
     21 H          -0.4165   -0.9990    0.1876 H       1  LIG1        0.0278
     22 H           0.8639    0.8267    2.7095 H       1  LIG1        0.0278
     23 H           2.1550   -0.1854    3.3667 H       1  LIG1        0.0278
     24 H           0.7666   -0.9259    2.5532 H       1  LIG1        0.0278
     25 H           4.1257    0.1143    2.1763 H       1  LIG1        0.0620
     26 H           5.3921    0.3123    0.0508 H       1  LIG1        0.0618
     27 H           4.1693    0.2249   -2.1180 H       1  LIG1        0.0636
     28 H           1.1197   -2.3126   -1.3852 H       1  LIG1        0.0636
     29 H          -0.3885   -4.0266   -2.2848 H       1  LIG1        0.0618
     30 H          -1.6199   -3.6447   -4.4245 H       1  LIG1        0.0618
     31 H          -1.2682   -1.5145   -5.6473 H       1  LIG1        0.0626
     32 H           1.7922    0.8407   -3.0880 H       1  LIG1        0.1522
     33 H          -0.2301    1.4602   -6.5111 H       1  LIG1        0.2954
@<TRIPOS>BOND
     1    33    17    1
     2    17    16    1
     3    31    14    1
     4    16    18    2
     5    16    15    1
     6    14    15   ar
     7    14    13   ar
     8    30    13    1
     9    15    10   ar
    10    13    12   ar
    11    32     9    1
    12    10     9    1
    13    10    11   ar
    14    12    11   ar
    15    12    29    1
    16     9     8    1
    17    11    28    1
    18    27     7    1
    19     8     7   ar
    20     8     2   ar
    21     7     6   ar
    22    19     1    1
    23     1     2    1
    24     1    21    1
    25     1    20    1
    26     2     3   ar
    27     6    26    1
    28     6     5   ar
    29     3     5   ar
    30     3     4    1
    31     5    25    1
    32     4    24    1
    33     4    22    1
    34     4    23    1
