@<TRIPOS>MOLECULE
zmat75.com
 33 34 0 0 0
SMALL
GASTEIGER
Energy = 0

@<TRIPOS>ATOM
      1 C           0.0000    0.0000    0.0000 C.3     1  LIG1       -0.0377
      2 C           1.5024    0.0000    0.0000 C.ar    1  LIG1       -0.0264
      3 C           2.2149    0.0000    1.2170 C.ar    1  LIG1       -0.0458
      4 C           1.4800    0.0067    2.5292 C.3     1  LIG1       -0.0394
      5 C           3.6103   -0.0061    1.1989 C.ar    1  LIG1       -0.0585
      6 C           4.3165   -0.0022   -0.0019 C.ar    1  LIG1       -0.0597
      7 C           3.6222    0.0215   -1.2035 C.ar    1  LIG1       -0.0403
      8 C           2.2243    0.0171   -1.2047 C.ar    1  LIG1        0.0345
      9 N           1.5417    0.0891   -2.4466 N.pl3   1  LIG1       -0.3136
     10 C           1.4202   -0.9363   -3.3368 C.ar    1  LIG1        0.0454
     11 C           2.0000   -2.1989   -3.0787 C.ar    1  LIG1       -0.0397
     12 C           1.8887   -3.2329   -3.9891 C.ar    1  LIG1       -0.0600
     13 C           1.1990   -3.0685   -5.1978 C.ar    1  LIG1       -0.0609
     14 C           0.6139   -1.8453   -5.4643 C.ar    1  LIG1       -0.0460
     15 C           0.7034   -0.7720   -4.5596 C.ar    1  LIG1        0.0799
     16 C           0.0475    0.4958   -4.8709 C.2     1  LIG1        0.3386
     17 O          -0.5561    0.5247   -6.0776 O.3     1  LIG1       -0.4771
     18 O           0.0071    1.4829   -4.1431 O.2     1  LIG1       -0.2451
     19 H          -0.3976   -0.2405   -0.9889 H       1  LIG1        0.0278
     20 H          -0.4014    0.9808    0.2899 H       1  LIG1        0.0278
     21 H          -0.3986   -0.7291    0.7141 H       1  LIG1        0.0278
     22 H           0.7911    0.8574    2.6033 H       1  LIG1        0.0278
     23 H           2.1783    0.0667    3.3694 H       1  LIG1        0.0278
     24 H           0.8777   -0.9013    2.6626 H       1  LIG1        0.0278
     25 H           4.1518   -0.0089    2.1427 H       1  LIG1        0.0620
     26 H           5.4034    0.0009    0.0019 H       1  LIG1        0.0618
     27 H           4.1462    0.0500   -2.1553 H       1  LIG1        0.0636
     28 H           2.5351   -2.3486   -2.1464 H       1  LIG1        0.0636
     29 H           2.3463   -4.1911   -3.7533 H       1  LIG1        0.0618
     30 H           1.1188   -3.8862   -5.9075 H       1  LIG1        0.0618
     31 H           0.0652   -1.6911   -6.3876 H       1  LIG1        0.0626
     32 H           1.0144    0.9279   -2.6775 H       1  LIG1        0.1522
     33 H          -0.9514    1.4091   -6.1544 H       1  LIG1        0.2954
@<TRIPOS>BOND
     1    31    14    1
     2    33    17    1
     3    17    16    1
     4    30    13    1
     5    14    13   ar
     6    14    15   ar
     7    13    12   ar
     8    16    15    1
     9    16    18    2
    10    15    10   ar
    11    12    29    1
    12    12    11   ar
    13    10    11   ar
    14    10     9    1
    15    11    28    1
    16    32     9    1
    17     9     8    1
    18    27     7    1
    19     8     7   ar
    20     8     2   ar
    21     7     6   ar
    22    19     1    1
    23     6    26    1
    24     6     5   ar
    25     2     1    1
    26     2     3   ar
    27     1    20    1
    28     1    21    1
    29     5     3   ar
    30     5    25    1
    31     3     4    1
    32     4    22    1
    33     4    24    1
    34     4    23    1
