@<TRIPOS>MOLECULE
zmat45.com
 33 34 0 0 0
SMALL
GASTEIGER
Energy = 0

@<TRIPOS>ATOM
      1 C           0.0000    0.0000    0.0000 C.3     1  LIG1       -0.0377
      2 C           1.5035    0.0000    0.0000 C.ar    1  LIG1       -0.0264
      3 C           2.2336    0.0000    1.2037 C.ar    1  LIG1       -0.0458
      4 C           1.5278    0.0103    2.5332 C.3     1  LIG1       -0.0394
      5 C           3.6295   -0.0168    1.1639 C.ar    1  LIG1       -0.0585
      6 C           4.3120   -0.0137   -0.0497 C.ar    1  LIG1       -0.0597
      7 C           3.6025    0.0168   -1.2418 C.ar    1  LIG1       -0.0403
      8 C           2.2034    0.0154   -1.2214 C.ar    1  LIG1        0.0345
      9 N           1.4662    0.1046   -2.4193 N.pl3   1  LIG1       -0.3136
     10 C           1.6847   -0.5774   -3.5829 C.ar    1  LIG1        0.0454
     11 C           2.5297   -1.7084   -3.6320 C.ar    1  LIG1       -0.0397
     12 C           2.7279   -2.4007   -4.8118 C.ar    1  LIG1       -0.0600
     13 C           2.0994   -2.0080   -6.0007 C.ar    1  LIG1       -0.0609
     14 C           1.2533   -0.9160   -5.9715 C.ar    1  LIG1       -0.0460
     15 C           1.0250   -0.1913   -4.7880 C.ar    1  LIG1        0.0799
     16 C           0.1007    0.9418   -4.8046 C.2     1  LIG1        0.3386
     17 O          -0.3910    1.2350   -6.0259 O.3     1  LIG1       -0.4771
     18 O          -0.2421    1.6058   -3.8315 O.2     1  LIG1       -0.2451
     19 H          -0.3923   -0.5200   -0.8794 H       1  LIG1        0.0278
     20 H          -0.4081    1.0207   -0.0189 H       1  LIG1        0.0278
     21 H          -0.4035   -0.4892    0.8908 H       1  LIG1        0.0278
     22 H           0.8320    0.8538    2.6181 H       1  LIG1        0.0278
     23 H           2.2472    0.0867    3.3540 H       1  LIG1        0.0278
     24 H           0.9432   -0.9051    2.6922 H       1  LIG1        0.0278
     25 H           4.1874   -0.0238    2.0978 H       1  LIG1        0.0620
     26 H           5.3990   -0.0102   -0.0656 H       1  LIG1        0.0618
     27 H           4.1228    0.0665   -2.1942 H       1  LIG1        0.0636
     28 H           3.0103   -2.0458   -2.7197 H       1  LIG1        0.0636
     29 H           3.3790   -3.2720   -4.8055 H       1  LIG1        0.0618
     30 H           2.2634   -2.5558   -6.9236 H       1  LIG1        0.0618
     31 H           0.7409   -0.5975   -6.8733 H       1  LIG1        0.0626
     32 H           0.7534    0.8279   -2.4870 H       1  LIG1        0.1522
     33 H          -0.9884    1.9905   -5.8970 H       1  LIG1        0.2954
@<TRIPOS>BOND
     1    30    13    1
     2    31    14    1
     3    17    33    1
     4    17    16    1
     5    13    14   ar
     6    13    12   ar
     7    14    15   ar
     8    12    29    1
     9    12    11   ar
    10    16    15    1
    11    16    18    2
    12    15    10   ar
    13    11    10   ar
    14    11    28    1
    15    10     9    1
    16    32     9    1
    17     9     8    1
    18    27     7    1
    19     7     8   ar
    20     7     6   ar
    21     8     2   ar
    22    19     1    1
    23    26     6    1
    24     6     5   ar
    25    20     1    1
    26     2     1    1
    27     2     3   ar
    28     1    21    1
    29     5     3   ar
    30     5    25    1
    31     3     4    1
    32     4    22    1
    33     4    24    1
    34     4    23    1
