@<TRIPOS>MOLECULE
zmat30.com
 33 34 0 0 0
SMALL
GASTEIGER
Energy = 0

@<TRIPOS>ATOM
      1 C           0.0000    0.0000    0.0000 C.3     1  LIG1       -0.0377
      2 C           1.5038    0.0000    0.0000 C.ar    1  LIG1       -0.0264
      3 C           2.2403    0.0000    1.1980 C.ar    1  LIG1       -0.0458
      4 C           1.5479    0.0130    2.5353 C.3     1  LIG1       -0.0394
      5 C           3.6368   -0.0202    1.1500 C.ar    1  LIG1       -0.0585
      6 C           4.3087   -0.0201   -0.0683 C.ar    1  LIG1       -0.0597
      7 C           3.5933    0.0036   -1.2577 C.ar    1  LIG1       -0.0403
      8 C           2.1944    0.0077   -1.2293 C.ar    1  LIG1        0.0345
      9 N           1.4294    0.0699   -2.4079 N.pl3   1  LIG1       -0.3136
     10 C           1.7521   -0.4090   -3.6497 C.ar    1  LIG1        0.0454
     11 C           2.6728   -1.4662   -3.8186 C.ar    1  LIG1       -0.0397
     12 C           2.9663   -1.9655   -5.0738 C.ar    1  LIG1       -0.0600
     13 C           2.3597   -1.4432   -6.2231 C.ar    1  LIG1       -0.0609
     14 C           1.4361   -0.4255   -6.0793 C.ar    1  LIG1       -0.0460
     15 C           1.1113    0.1023   -4.8168 C.ar    1  LIG1        0.0799
     16 C           0.1059    1.1617   -4.7188 C.2     1  LIG1        0.3386
     17 O          -0.3394    1.6094   -5.9103 O.3     1  LIG1       -0.4771
     18 O          -0.3379    1.6395   -3.6801 O.2     1  LIG1       -0.2451
     19 H          -0.3908   -0.6496   -0.7909 H       1  LIG1        0.0278
     20 H          -0.4107    1.0043   -0.1792 H       1  LIG1        0.0278
     21 H          -0.4065   -0.3471    0.9528 H       1  LIG1        0.0278
     22 H           0.8690    0.8683    2.6355 H       1  LIG1        0.0278
     23 H           2.2786    0.0715    3.3478 H       1  LIG1        0.0278
     24 H           0.9506   -0.8937    2.6959 H       1  LIG1        0.0278
     25 H           4.2011   -0.0277    2.0798 H       1  LIG1        0.0620
     26 H           5.3956   -0.0171   -0.0930 H       1  LIG1        0.0618
     27 H           4.1149    0.0548   -2.2085 H       1  LIG1        0.0636
     28 H           3.1305   -1.9094   -2.9407 H       1  LIG1        0.0636
     29 H           3.6725   -2.7882   -5.1598 H       1  LIG1        0.0618
     30 H           2.5974   -1.8386   -7.2059 H       1  LIG1        0.0618
     31 H           0.9361   -0.0144   -6.9500 H       1  LIG1        0.0626
     32 H           0.6578    0.7340   -2.4179 H       1  LIG1        0.1522
     33 H          -1.0000    2.2926   -5.7076 H       1  LIG1        0.2954
@<TRIPOS>BOND
     1    30    13    1
     2    31    14    1
     3    13    14   ar
     4    13    12   ar
     5    14    15   ar
     6    17    33    1
     7    17    16    1
     8    29    12    1
     9    12    11   ar
    10    15    16    1
    11    15    10   ar
    12    16    18    2
    13    11    10   ar
    14    11    28    1
    15    10     9    1
    16    32     9    1
    17     9     8    1
    18    27     7    1
    19     7     8   ar
    20     7     6   ar
    21     8     2   ar
    22    19     1    1
    23    20     1    1
    24    26     6    1
    25     6     5   ar
    26     2     1    1
    27     2     3   ar
    28     1    21    1
    29     5     3   ar
    30     5    25    1
    31     3     4    1
    32     4    22    1
    33     4    24    1
    34     4    23    1
