@<TRIPOS>MOLECULE
zmat160.com
 33 34 0 0 0
SMALL
GASTEIGER
Energy = 0

@<TRIPOS>ATOM
      1 C           0.0000    0.0000    0.0000 C.3     1  LIG1       -0.0377
      2 C           1.5047    0.0000    0.0000 C.ar    1  LIG1       -0.0264
      3 C           2.1784    0.0000    1.2418 C.ar    1  LIG1       -0.0458
      4 C           1.4118   -0.1843    2.5251 C.3     1  LIG1       -0.0394
      5 C           3.5536    0.2209    1.3010 C.ar    1  LIG1       -0.0585
      6 C           4.2798    0.4685    0.1392 C.ar    1  LIG1       -0.0597
      7 C           3.6423    0.4167   -1.0882 C.ar    1  LIG1       -0.0403
      8 C           2.2727    0.1197   -1.1786 C.ar    1  LIG1        0.0345
      9 N           1.7564    0.1295   -2.4904 N.pl3   1  LIG1       -0.3136
     10 C           0.6161   -0.4497   -2.9855 C.ar    1  LIG1        0.0454
     11 C           0.1651   -1.6903   -2.4863 C.ar    1  LIG1       -0.0397
     12 C          -0.9470   -2.3143   -3.0180 C.ar    1  LIG1       -0.0600
     13 C          -1.6580   -1.7395   -4.0802 C.ar    1  LIG1       -0.0609
     14 C          -1.2123   -0.5427   -4.6082 C.ar    1  LIG1       -0.0460
     15 C          -0.0806    0.1143   -4.0918 C.ar    1  LIG1        0.0799
     16 C           0.3726    1.3632   -4.7077 C.2     1  LIG1        0.3386
     17 O          -0.4570    1.8390   -5.6585 O.3     1  LIG1       -0.4771
     18 O           1.4035    1.9665   -4.4336 O.2     1  LIG1       -0.2451
     19 H          -0.4049    0.4730   -0.8974 H       1  LIG1        0.0278
     20 H          -0.3738    0.5612    0.8621 H       1  LIG1        0.0278
     21 H          -0.4374   -1.0058    0.0564 H       1  LIG1        0.0278
     22 H           0.8000    0.6956    2.7658 H       1  LIG1        0.0278
     23 H           2.0973   -0.3423    3.3633 H       1  LIG1        0.0278
     24 H           0.7323   -1.0432    2.4790 H       1  LIG1        0.0278
     25 H           4.0520    0.2282    2.2678 H       1  LIG1        0.0620
     26 H           5.3441    0.6831    0.1897 H       1  LIG1        0.0618
     27 H           4.2041    0.5606   -2.0084 H       1  LIG1        0.0636
     28 H           0.7311   -2.1619   -1.6884 H       1  LIG1        0.0636
     29 H          -1.2590   -3.2744   -2.6132 H       1  LIG1        0.0618
     30 H          -2.5312   -2.2340   -4.4950 H       1  LIG1        0.0618
     31 H          -1.7312   -0.0881   -5.4457 H       1  LIG1        0.0626
     32 H           2.0791    0.9086   -3.0620 H       1  LIG1        0.1522
     33 H          -0.0394    2.6495   -5.9950 H       1  LIG1        0.2954
@<TRIPOS>BOND
     1    33    17    1
     2    17    16    1
     3    31    14    1
     4    16    18    2
     5    16    15    1
     6    14    15   ar
     7    14    13   ar
     8    30    13    1
     9    15    10   ar
    10    13    12   ar
    11    32     9    1
    12    12    29    1
    13    12    11   ar
    14    10     9    1
    15    10    11   ar
    16     9     8    1
    17    11    28    1
    18    27     7    1
    19     8     7   ar
    20     8     2   ar
    21     7     6   ar
    22    19     1    1
    23     1     2    1
    24     1    21    1
    25     1    20    1
    26     2     3   ar
    27     6    26    1
    28     6     5   ar
    29     3     5   ar
    30     3     4    1
    31     5    25    1
    32    24     4    1
    33     4    22    1
    34     4    23    1
