@<TRIPOS>MOLECULE
zmat175.com
 33 34 0 0 0
SMALL
GASTEIGER
Energy = 0

@<TRIPOS>ATOM
      1 C           0.0000    0.0000    0.0000 C.3     1  LIG1       -0.0377
      2 C           1.5060    0.0000    0.0000 C.ar    1  LIG1       -0.0264
      3 C           2.1717    0.0000    1.2473 C.ar    1  LIG1       -0.0458
      4 C           1.4007   -0.2183    2.5230 C.3     1  LIG1       -0.0394
      5 C           3.5390    0.2577    1.3237 C.ar    1  LIG1       -0.0585
      6 C           4.2631    0.5510    0.1710 C.ar    1  LIG1       -0.0597
      7 C           3.6378    0.4934   -1.0612 C.ar    1  LIG1       -0.0403
      8 C           2.2830    0.1340   -1.1724 C.ar    1  LIG1        0.0345
      9 N           1.8121    0.0947   -2.5009 N.pl3   1  LIG1       -0.3136
     10 C           0.5915   -0.2970   -3.0064 C.ar    1  LIG1        0.0454
     11 C           0.0033   -1.5033   -2.5735 C.ar    1  LIG1       -0.0397
     12 C          -1.1835   -1.9586   -3.1147 C.ar    1  LIG1       -0.0600
     13 C          -1.8312   -1.2400   -4.1284 C.ar    1  LIG1       -0.0609
     14 C          -1.2493   -0.0778   -4.5990 C.ar    1  LIG1       -0.0460
     15 C          -0.0397    0.4069   -4.0680 C.ar    1  LIG1        0.0799
     16 C           0.5598    1.6224   -4.6280 C.2     1  LIG1        0.3386
     17 O          -0.2322    2.2673   -5.5075 O.3     1  LIG1       -0.4771
     18 O           1.6746    2.0573   -4.3675 O.2     1  LIG1       -0.2451
     19 H          -0.4061    0.5149   -0.8730 H       1  LIG1        0.0278
     20 H          -0.3693    0.5265    0.8853 H       1  LIG1        0.0278
     21 H          -0.4454   -1.0037    0.0159 H       1  LIG1        0.0278
     22 H           0.7831    0.6520    2.7829 H       1  LIG1        0.0278
     23 H           2.0853   -0.3908    3.3591 H       1  LIG1        0.0278
     24 H           0.7274   -1.0807    2.4559 H       1  LIG1        0.0278
     25 H           4.0292    0.2649    2.2944 H       1  LIG1        0.0620
     26 H           5.3173    0.8089    0.2320 H       1  LIG1        0.0618
     27 H           4.2058    0.6694   -1.9723 H       1  LIG1        0.0636
     28 H           0.5237   -2.0855   -1.8190 H       1  LIG1        0.0636
     29 H          -1.6034   -2.8974   -2.7612 H       1  LIG1        0.0618
     30 H          -2.7624   -1.6006   -4.5550 H       1  LIG1        0.0618
     31 H          -1.7183    0.4814   -5.4018 H       1  LIG1        0.0626
     32 H           2.2308    0.8236   -3.0764 H       1  LIG1        0.1522
     33 H           0.2804    3.0328   -5.8170 H       1  LIG1        0.2954
@<TRIPOS>BOND
     1    33    17    1
     2    17    16    1
     3    31    14    1
     4    16    18    2
     5    16    15    1
     6    14    13   ar
     7    14    15   ar
     8    30    13    1
     9    13    12   ar
    10    15    10   ar
    11    12    29    1
    12    12    11   ar
    13    32     9    1
    14    10    11   ar
    15    10     9    1
    16    11    28    1
    17     9     8    1
    18    27     7    1
    19     8     7   ar
    20     8     2   ar
    21     7     6   ar
    22    19     1    1
    23     1     2    1
    24     1    21    1
    25     1    20    1
    26     2     3   ar
    27     6    26    1
    28     6     5   ar
    29     3     5   ar
    30     3     4    1
    31     5    25    1
    32    24     4    1
    33     4    22    1
    34     4    23    1
