@<TRIPOS>MOLECULE
zmat95.com
 33 34 0 0 0
SMALL
GASTEIGER
Energy = 0

@<TRIPOS>ATOM
      1 C           0.0000    0.0000    0.0000 C.3     1  LIG1       -0.0377
      2 C           1.5016    0.0000    0.0000 C.ar    1  LIG1       -0.0264
      3 C           2.2120    0.0000    1.2175 C.ar    1  LIG1       -0.0458
      4 C           1.4736   -0.0023    2.5276 C.3     1  LIG1       -0.0394
      5 C           3.6079    0.0106    1.2018 C.ar    1  LIG1       -0.0585
      6 C           4.3164    0.0169    0.0032 C.ar    1  LIG1       -0.0597
      7 C           3.6233    0.0031   -1.2002 C.ar    1  LIG1       -0.0403
      8 C           2.2261   -0.0002   -1.2038 C.ar    1  LIG1        0.0345
      9 N           1.5488    0.0070   -2.4539 N.pl3   1  LIG1       -0.3136
     10 C           1.0980   -1.1101   -3.0928 C.ar    1  LIG1        0.0454
     11 C           1.1577   -2.3757   -2.4680 C.ar    1  LIG1       -0.0397
     12 C           0.6758   -3.5060   -3.1012 C.ar    1  LIG1       -0.0600
     13 C           0.1136   -3.4380   -4.3828 C.ar    1  LIG1       -0.0609
     14 C           0.0539   -2.2105   -5.0154 C.ar    1  LIG1       -0.0460
     15 C           0.5368   -1.0405   -4.4024 C.ar    1  LIG1        0.0799
     16 C           0.4714    0.2334   -5.1154 C.2     1  LIG1        0.3386
     17 O          -0.1054    0.1558   -6.3332 O.3     1  LIG1       -0.4771
     18 O           0.8880    1.3108   -4.7028 O.2     1  LIG1       -0.2451
     19 H          -0.3941    0.1575   -1.0061 H       1  LIG1        0.0278
     20 H          -0.3971    0.7877    0.6512 H       1  LIG1        0.0278
     21 H          -0.4008   -0.9523    0.3725 H       1  LIG1        0.0278
     22 H           0.8706    0.9062    2.6540 H       1  LIG1        0.0278
     23 H           2.1690   -0.0584    3.3705 H       1  LIG1        0.0278
     24 H           0.7838   -0.8520    2.6035 H       1  LIG1        0.0278
     25 H           4.1474    0.0142    2.1469 H       1  LIG1        0.0620
     26 H           5.4033    0.0243    0.0090 H       1  LIG1        0.0618
     27 H           4.1498   -0.0069   -2.1512 H       1  LIG1        0.0636
     28 H           1.5988   -2.4497   -1.4787 H       1  LIG1        0.0636
     29 H           0.7410   -4.4635   -2.5892 H       1  LIG1        0.0618
     30 H          -0.2631   -4.3309   -4.8723 H       1  LIG1        0.0618
     31 H          -0.3692   -2.1287   -6.0112 H       1  LIG1        0.0626
     32 H           1.5594    0.8541   -3.0171 H       1  LIG1        0.1522
     33 H          -0.0804    1.0569   -6.6958 H       1  LIG1        0.2954
@<TRIPOS>BOND
     1    33    17    1
     2    17    16    1
     3    31    14    1
     4    16    18    2
     5    16    15    1
     6    14    15   ar
     7    14    13   ar
     8    30    13    1
     9    15    10   ar
    10    13    12   ar
    11    12    29    1
    12    12    11   ar
    13    10    11   ar
    14    10     9    1
    15    32     9    1
    16    11    28    1
    17     9     8    1
    18    27     7    1
    19     8     7   ar
    20     8     2   ar
    21     7     6   ar
    22    19     1    1
    23     1     2    1
    24     1    21    1
    25     1    20    1
    26     2     3   ar
    27     6    26    1
    28     6     5   ar
    29     5     3   ar
    30     5    25    1
    31     3     4    1
    32     4    24    1
    33     4    22    1
    34     4    23    1
