@<TRIPOS>MOLECULE
zmat145.com
 33 34 0 0 0
SMALL
GASTEIGER
Energy = 0

@<TRIPOS>ATOM
      1 C           0.0000    0.0000    0.0000 C.3     1  LIG1       -0.0377
      2 C           1.5033    0.0000    0.0000 C.ar    1  LIG1       -0.0264
      3 C           2.1923    0.0000    1.2313 C.ar    1  LIG1       -0.0458
      4 C           1.4386   -0.1426    2.5267 C.3     1  LIG1       -0.0394
      5 C           3.5752    0.1824    1.2612 C.ar    1  LIG1       -0.0585
      6 C           4.2923    0.3807    0.0845 C.ar    1  LIG1       -0.0597
      7 C           3.6346    0.3274   -1.1341 C.ar    1  LIG1       -0.0403
      8 C           2.2551    0.0861   -1.1907 C.ar    1  LIG1        0.0345
      9 N           1.6820    0.0872   -2.4801 N.pl3   1  LIG1       -0.3136
     10 C           0.6561   -0.6885   -2.9459 C.ar    1  LIG1        0.0454
     11 C           0.3615   -1.9323   -2.3461 C.ar    1  LIG1       -0.0397
     12 C          -0.6450   -2.7415   -2.8365 C.ar    1  LIG1       -0.0600
     13 C          -1.4038   -2.3583   -3.9507 C.ar    1  LIG1       -0.0609
     14 C          -1.1130   -1.1579   -4.5706 C.ar    1  LIG1       -0.0460
     15 C          -0.0915   -0.3132   -4.0993 C.ar    1  LIG1        0.0799
     16 C           0.1995    0.9353   -4.8044 C.2     1  LIG1        0.3386
     17 O          -0.6481    1.2055   -5.8183 O.3     1  LIG1       -0.4771
     18 O           1.1169    1.7076   -4.5488 O.2     1  LIG1       -0.2451
     19 H          -0.4015    0.4226   -0.9241 H       1  LIG1        0.0278
     20 H          -0.3788    0.6018    0.8325 H       1  LIG1        0.0278
     21 H          -0.4294   -1.0053    0.1064 H       1  LIG1        0.0278
     22 H           0.8333    0.7474    2.7457 H       1  LIG1        0.0278
     23 H           2.1299   -0.2808    3.3637 H       1  LIG1        0.0278
     24 H           0.7532   -0.9980    2.5105 H       1  LIG1        0.0278
     25 H           4.0901    0.1920    2.2194 H       1  LIG1        0.0620
     26 H           5.3647    0.5548    0.1169 H       1  LIG1        0.0618
     27 H           4.1835    0.4323   -2.0669 H       1  LIG1        0.0636
     28 H           0.9624   -2.2558   -1.5014 H       1  LIG1        0.0636
     29 H          -0.8361   -3.6972   -2.3535 H       1  LIG1        0.0618
     30 H          -2.1940   -2.9984   -4.3309 H       1  LIG1        0.0618
     31 H          -1.6716   -0.8456   -5.4468 H       1  LIG1        0.0626
     32 H           1.9040    0.8812   -3.0774 H       1  LIG1        0.1522
     33 H          -0.3407    2.0420   -6.2055 H       1  LIG1        0.2954
@<TRIPOS>BOND
     1    33    17    1
     2    17    16    1
     3    31    14    1
     4    16    18    2
     5    16    15    1
     6    14    15   ar
     7    14    13   ar
     8    30    13    1
     9    15    10   ar
    10    13    12   ar
    11    32     9    1
    12    10     9    1
    13    10    11   ar
    14    12    29    1
    15    12    11   ar
    16     9     8    1
    17    11    28    1
    18    27     7    1
    19     8     7   ar
    20     8     2   ar
    21     7     6   ar
    22    19     1    1
    23     1     2    1
    24     1    21    1
    25     1    20    1
    26     2     3   ar
    27     6    26    1
    28     6     5   ar
    29     3     5   ar
    30     3     4    1
    31     5    25    1
    32    24     4    1
    33     4    22    1
    34     4    23    1
