@<TRIPOS>MOLECULE
zmat15.com
 33 34 0 0 0
SMALL
GASTEIGER
Energy = 0

@<TRIPOS>ATOM
      1 C           0.0000    0.0000    0.0000 C.3     1  LIG1       -0.0377
      2 C           1.5041    0.0000    0.0000 C.ar    1  LIG1       -0.0264
      3 C           2.2414    0.0000    1.1959 C.ar    1  LIG1       -0.0458
      4 C           1.5532    0.0128    2.5359 C.3     1  LIG1       -0.0394
      5 C           3.6385   -0.0207    1.1471 C.ar    1  LIG1       -0.0585
      6 C           4.3058   -0.0224   -0.0724 C.ar    1  LIG1       -0.0597
      7 C           3.5902   -0.0047   -1.2625 C.ar    1  LIG1       -0.0403
      8 C           2.1913    0.0070   -1.2339 C.ar    1  LIG1        0.0345
      9 N           1.4074    0.0426   -2.4000 N.pl3   1  LIG1       -0.3136
     10 C           1.7951   -0.2085   -3.6939 C.ar    1  LIG1        0.0454
     11 C           2.7777   -1.1757   -3.9933 C.ar    1  LIG1       -0.0397
     12 C           3.1339   -1.4551   -5.3001 C.ar    1  LIG1       -0.0600
     13 C           2.5262   -0.7920   -6.3729 C.ar    1  LIG1       -0.0609
     14 C           1.5386    0.1372   -6.1047 C.ar    1  LIG1       -0.0460
     15 C           1.1517    0.4409   -4.7874 C.ar    1  LIG1        0.0799
     16 C           0.0811    1.4160   -4.5621 C.2     1  LIG1        0.3386
     17 O          -0.3362    2.0403   -5.6814 O.3     1  LIG1       -0.4771
     18 O          -0.4351    1.6815   -3.4825 O.2     1  LIG1       -0.2451
     19 H          -0.3922   -0.7186   -0.7292 H       1  LIG1        0.0278
     20 H          -0.4125    0.9836   -0.2678 H       1  LIG1        0.0278
     21 H          -0.4070   -0.2616    0.9788 H       1  LIG1        0.0278
     22 H           0.8843    0.8749    2.6444 H       1  LIG1        0.0278
     23 H           2.2880    0.0595    3.3454 H       1  LIG1        0.0278
     24 H           0.9477   -0.8887    2.6944 H       1  LIG1        0.0278
     25 H           4.2044   -0.0282    2.0759 H       1  LIG1        0.0620
     26 H           5.3926   -0.0205   -0.1005 H       1  LIG1        0.0618
     27 H           4.1176    0.0481   -2.2090 H       1  LIG1        0.0636
     28 H           3.2296   -1.7328   -3.1798 H       1  LIG1        0.0636
     29 H           3.8872   -2.2163   -5.4891 H       1  LIG1        0.0618
     30 H           2.8112   -1.0141   -7.3968 H       1  LIG1        0.0618
     31 H           1.0363    0.6501   -6.9181 H       1  LIG1        0.0626
     32 H           0.5837    0.6387   -2.3500 H       1  LIG1        0.1522
     33 H          -1.0472    2.6412   -5.4024 H       1  LIG1        0.2954
@<TRIPOS>BOND
     1    30    13    1
     2    31    14    1
     3    13    14   ar
     4    13    12   ar
     5    14    15   ar
     6    17    33    1
     7    17    16    1
     8    29    12    1
     9    12    11   ar
    10    15    16    1
    11    15    10   ar
    12    16    18    2
    13    11    10   ar
    14    11    28    1
    15    10     9    1
    16     9    32    1
    17     9     8    1
    18    27     7    1
    19     7     8   ar
    20     7     6   ar
    21     8     2   ar
    22    19     1    1
    23    20     1    1
    24    26     6    1
    25     6     5   ar
    26     2     1    1
    27     2     3   ar
    28     1    21    1
    29     5     3   ar
    30     5    25    1
    31     3     4    1
    32     4    22    1
    33     4    24    1
    34     4    23    1
