@<TRIPOS>MOLECULE
zmat20.com
 33 34 0 0 0
SMALL
GASTEIGER
Energy = 0

@<TRIPOS>ATOM
      1 C           0.0000    0.0000    0.0000 C.3     1  LIG1       -0.0377
      2 C           1.5040    0.0000    0.0000 C.ar    1  LIG1       -0.0264
      3 C           2.2411    0.0000    1.1966 C.ar    1  LIG1       -0.0458
      4 C           1.5515    0.0112    2.5357 C.3     1  LIG1       -0.0394
      5 C           3.6380   -0.0194    1.1482 C.ar    1  LIG1       -0.0585
      6 C           4.3068   -0.0187   -0.0710 C.ar    1  LIG1       -0.0597
      7 C           3.5913    0.0020   -1.2608 C.ar    1  LIG1       -0.0403
      8 C           2.1923    0.0094   -1.2323 C.ar    1  LIG1        0.0345
      9 N           1.4144    0.0571   -2.4023 N.pl3   1  LIG1       -0.3136
     10 C           1.7868   -0.2674   -3.6828 C.ar    1  LIG1        0.0454
     11 C           2.7487   -1.2676   -3.9397 C.ar    1  LIG1       -0.0397
     12 C           3.0903   -1.6176   -5.2331 C.ar    1  LIG1       -0.0600
     13 C           2.4896   -0.9954   -6.3343 C.ar    1  LIG1       -0.0609
     14 C           1.5235   -0.0336   -6.1066 C.ar    1  LIG1       -0.0460
     15 C           1.1508    0.3419   -4.8037 C.ar    1  LIG1        0.0799
     16 C           0.1023    1.3485   -4.6197 C.2     1  LIG1        0.3386
     17 O          -0.3162    1.9210   -5.7662 O.3     1  LIG1       -0.4771
     18 O          -0.3960    1.6815   -3.5502 O.2     1  LIG1       -0.2451
     19 H          -0.3917   -0.6940   -0.7527 H       1  LIG1        0.0278
     20 H          -0.4117    0.9921   -0.2357 H       1  LIG1        0.0278
     21 H          -0.4070   -0.2932    0.9701 H       1  LIG1        0.0278
     22 H           0.8782    0.8703    2.6421 H       1  LIG1        0.0278
     23 H           2.2849    0.0623    3.3462 H       1  LIG1        0.0278
     24 H           0.9498   -0.8928    2.6945 H       1  LIG1        0.0278
     25 H           4.2034   -0.0272    2.0774 H       1  LIG1        0.0620
     26 H           5.3937   -0.0152   -0.0979 H       1  LIG1        0.0618
     27 H           4.1167    0.0563   -2.2087 H       1  LIG1        0.0636
     28 H           3.1976   -1.7908   -3.1024 H       1  LIG1        0.0636
     29 H           3.8276   -2.4019   -5.3887 H       1  LIG1        0.0618
     30 H           2.7639   -1.2731   -7.3475 H       1  LIG1        0.0618
     31 H           1.0272    0.4501   -6.9413 H       1  LIG1        0.0626
     32 H           0.6080    0.6779   -2.3715 H       1  LIG1        0.1522
     33 H          -1.0115    2.5502   -5.5114 H       1  LIG1        0.2954
@<TRIPOS>BOND
     1    30    13    1
     2    31    14    1
     3    13    14   ar
     4    13    12   ar
     5    14    15   ar
     6    17    33    1
     7    17    16    1
     8    29    12    1
     9    12    11   ar
    10    15    16    1
    11    15    10   ar
    12    16    18    2
    13    11    10   ar
    14    11    28    1
    15    10     9    1
    16     9    32    1
    17     9     8    1
    18    27     7    1
    19     7     8   ar
    20     7     6   ar
    21     8     2   ar
    22    19     1    1
    23    20     1    1
    24    26     6    1
    25     6     5   ar
    26     2     1    1
    27     2     3   ar
    28     1    21    1
    29     5     3   ar
    30     5    25    1
    31     3     4    1
    32     4    22    1
    33     4    24    1
    34     4    23    1
