@<TRIPOS>MOLECULE
zmat90.com
 33 34 0 0 0
SMALL
GASTEIGER
Energy = 0

@<TRIPOS>ATOM
      1 C           0.0000    0.0000    0.0000 C.3     1  LIG1       -0.0377
      2 C           1.5018    0.0000    0.0000 C.ar    1  LIG1       -0.0264
      3 C           2.2098    0.0000    1.2192 C.ar    1  LIG1       -0.0458
      4 C           1.4680   -0.0002    2.5272 C.3     1  LIG1       -0.0394
      5 C           3.6055    0.0051    1.2062 C.ar    1  LIG1       -0.0585
      6 C           4.3169    0.0099    0.0090 C.ar    1  LIG1       -0.0597
      7 C           3.6260    0.0061   -1.1956 C.ar    1  LIG1       -0.0403
      8 C           2.2288    0.0040   -1.2020 C.ar    1  LIG1        0.0345
      9 N           1.5544    0.0230   -2.4541 N.pl3   1  LIG1       -0.3136
     10 C           1.1907   -1.0897   -3.1503 C.ar    1  LIG1        0.0454
     11 C           1.3980   -2.3797   -2.6117 C.ar    1  LIG1       -0.0397
     12 C           1.0190   -3.5112   -3.3090 C.ar    1  LIG1       -0.0600
     13 C           0.4172   -3.4211   -4.5713 C.ar    1  LIG1       -0.0609
     14 C           0.2076   -2.1688   -5.1170 C.ar    1  LIG1       -0.0460
     15 C           0.5808   -0.9958   -4.4367 C.ar    1  LIG1        0.0799
     16 C           0.3473    0.3081   -5.0526 C.2     1  LIG1        0.3386
     17 O          -0.2402    0.2492   -6.2665 O.3     1  LIG1       -0.4771
     18 O           0.6360    1.3960   -4.5646 O.2     1  LIG1       -0.2451
     19 H          -0.3957    0.0555   -1.0160 H       1  LIG1        0.0278
     20 H          -0.3970    0.8511    0.5674 H       1  LIG1        0.0278
     21 H          -0.3987   -0.9079    0.4708 H       1  LIG1        0.0278
     22 H           0.8370    0.8914    2.6349 H       1  LIG1        0.0278
     23 H           2.1619   -0.0208    3.3730 H       1  LIG1        0.0278
     24 H           0.8039   -0.8691    2.6171 H       1  LIG1        0.0278
     25 H           4.1431    0.0069    2.1524 H       1  LIG1        0.0620
     26 H           5.4037    0.0152    0.0173 H       1  LIG1        0.0618
     27 H           4.1529    0.0044   -2.1462 H       1  LIG1        0.0636
     28 H           1.8684   -2.4696   -1.6374 H       1  LIG1        0.0636
     29 H           1.1961   -4.4872   -2.8628 H       1  LIG1        0.0618
     30 H           0.1229   -4.3157   -5.1116 H       1  LIG1        0.0618
     31 H          -0.2539   -2.0683   -6.0939 H       1  LIG1        0.0626
     32 H           1.4081    0.9085   -2.9330 H       1  LIG1        0.1522
     33 H          -0.3346    1.1708   -6.5594 H       1  LIG1        0.2954
@<TRIPOS>BOND
     1    33    17    1
     2    17    16    1
     3    31    14    1
     4    14    13   ar
     5    14    15   ar
     6    30    13    1
     7    16    18    2
     8    16    15    1
     9    13    12   ar
    10    15    10   ar
    11    12    29    1
    12    12    11   ar
    13    10    11   ar
    14    10     9    1
    15    32     9    1
    16    11    28    1
    17     9     8    1
    18    27     7    1
    19     8     7   ar
    20     8     2   ar
    21     7     6   ar
    22    19     1    1
    23     1     2    1
    24     1    21    1
    25     1    20    1
    26     2     3   ar
    27     6    26    1
    28     6     5   ar
    29     5     3   ar
    30     5    25    1
    31     3     4    1
    32     4    24    1
    33     4    22    1
    34     4    23    1
