@<TRIPOS>MOLECULE
zmat55.com
 33 34 0 0 0
SMALL
GASTEIGER
Energy = 0

@<TRIPOS>ATOM
      1 C           0.0000    0.0000    0.0000 C.3     1  LIG1       -0.0377
      2 C           1.5031    0.0000    0.0000 C.ar    1  LIG1       -0.0264
      3 C           2.2255    0.0000    1.2097 C.ar    1  LIG1       -0.0458
      4 C           1.5058    0.0135    2.5311 C.3     1  LIG1       -0.0394
      5 C           3.6208   -0.0190    1.1801 C.ar    1  LIG1       -0.0585
      6 C           4.3140   -0.0214   -0.0282 C.ar    1  LIG1       -0.0597
      7 C           3.6118    0.0092   -1.2244 C.ar    1  LIG1       -0.0403
      8 C           2.2129    0.0123   -1.2140 C.ar    1  LIG1        0.0345
      9 N           1.4995    0.1034   -2.4296 N.pl3   1  LIG1       -0.3136
     10 C           1.6256   -0.7154   -3.5142 C.ar    1  LIG1        0.0454
     11 C           2.3926   -1.9009   -3.4595 C.ar    1  LIG1       -0.0397
     12 C           2.5063   -2.7279   -4.5608 C.ar    1  LIG1       -0.0600
     13 C           1.8671   -2.4232   -5.7700 C.ar    1  LIG1       -0.0609
     14 C           1.0996   -1.2765   -5.8410 C.ar    1  LIG1       -0.0460
     15 C           0.9583   -0.4137   -4.7392 C.ar    1  LIG1        0.0799
     16 C           0.1158    0.7749   -4.8568 C.2     1  LIG1        0.3386
     17 O          -0.4031    0.9646   -6.0877 O.3     1  LIG1       -0.4771
     18 O          -0.1408    1.5679   -3.9563 O.2     1  LIG1       -0.2451
     19 H          -0.3942   -0.4095   -0.9342 H       1  LIG1        0.0278
     20 H          -0.4064    1.0154    0.1098 H       1  LIG1        0.0278
     21 H          -0.4005   -0.5944    0.8272 H       1  LIG1        0.0278
     22 H           0.8055    0.8545    2.6035 H       1  LIG1        0.0278
     23 H           2.2149    0.0954    3.3605 H       1  LIG1        0.0278
     24 H           0.9214   -0.9028    2.6860 H       1  LIG1        0.0278
     25 H           4.1715   -0.0246    2.1185 H       1  LIG1        0.0620
     26 H           5.4011   -0.0226   -0.0353 H       1  LIG1        0.0618
     27 H           4.1345    0.0486   -2.1763 H       1  LIG1        0.0636
     28 H           2.8837   -2.1663   -2.5291 H       1  LIG1        0.0636
     29 H           3.1001   -3.6352   -4.4760 H       1  LIG1        0.0618
     30 H           1.9645   -3.0777   -6.6307 H       1  LIG1        0.0618
     31 H           0.5829   -1.0205   -6.7601 H       1  LIG1        0.0626
     32 H           0.8454    0.8731   -2.5530 H       1  LIG1        0.1522
     33 H          -0.9394    1.7727   -6.0275 H       1  LIG1        0.2954
@<TRIPOS>BOND
     1    31    14    1
     2    30    13    1
     3    17    33    1
     4    17    16    1
     5    14    13   ar
     6    14    15   ar
     7    13    12   ar
     8    16    15    1
     9    16    18    2
    10    15    10   ar
    11    12    29    1
    12    12    11   ar
    13    10    11   ar
    14    10     9    1
    15    11    28    1
    16    32     9    1
    17     9     8    1
    18    27     7    1
    19     7     8   ar
    20     7     6   ar
    21     8     2   ar
    22    19     1    1
    23    26     6    1
    24     6     5   ar
    25     2     1    1
    26     2     3   ar
    27     1    20    1
    28     1    21    1
    29     5     3   ar
    30     5    25    1
    31     3     4    1
    32     4    22    1
    33     4    24    1
    34     4    23    1
