@<TRIPOS>MOLECULE
zmat135.com
 33 34 0 0 0
SMALL
GASTEIGER
Energy = 0

@<TRIPOS>ATOM
      1 C           0.0000    0.0000    0.0000 C.3     1  LIG1       -0.0377
      2 C           1.5027    0.0000    0.0000 C.ar    1  LIG1       -0.0264
      3 C           2.1993    0.0000    1.2262 C.ar    1  LIG1       -0.0458
      4 C           1.4513   -0.1091    2.5279 C.3     1  LIG1       -0.0394
      5 C           3.5875    0.1439    1.2410 C.ar    1  LIG1       -0.0585
      6 C           4.3026    0.2968    0.0564 C.ar    1  LIG1       -0.0597
      7 C           3.6333    0.2501   -1.1573 C.ar    1  LIG1       -0.0403
      8 C           2.2458    0.0653   -1.1961 C.ar    1  LIG1        0.0345
      9 N           1.6423    0.0727   -2.4728 N.pl3   1  LIG1       -0.3136
     10 C           0.7043   -0.7968   -2.9518 C.ar    1  LIG1        0.0454
     11 C           0.4672   -2.0351   -2.3159 C.ar    1  LIG1       -0.0397
     12 C          -0.4642   -2.9264   -2.8134 C.ar    1  LIG1       -0.0600
     13 C          -1.2027   -2.6353   -3.9682 C.ar    1  LIG1       -0.0609
     14 C          -0.9686   -1.4395   -4.6202 C.ar    1  LIG1       -0.0460
     15 C          -0.0246   -0.5120   -4.1437 C.ar    1  LIG1        0.0799
     16 C           0.2073    0.7289   -4.8819 C.2     1  LIG1        0.3386
     17 O          -0.6078    0.8997   -5.9434 O.3     1  LIG1       -0.4771
     18 O           1.0518    1.5771   -4.6145 O.2     1  LIG1       -0.2451
     19 H          -0.4000    0.3871   -0.9402 H       1  LIG1        0.0278
     20 H          -0.3832    0.6281    0.8111 H       1  LIG1        0.0278
     21 H          -0.4227   -1.0038    0.1420 H       1  LIG1        0.0278
     22 H           0.8517    0.7888    2.7287 H       1  LIG1        0.0278
     23 H           2.1447   -0.2333    3.3652 H       1  LIG1        0.0278
     24 H           0.7605   -0.9606    2.5328 H       1  LIG1        0.0278
     25 H           4.1104    0.1529    2.1949 H       1  LIG1        0.0620
     26 H           5.3809    0.4311    0.0792 H       1  LIG1        0.0618
     27 H           4.1760    0.3255   -2.0963 H       1  LIG1        0.0636
     28 H           1.0507   -2.2882   -1.4359 H       1  LIG1        0.0636
     29 H          -0.6121   -3.8742   -2.3006 H       1  LIG1        0.0618
     30 H          -1.9339   -3.3400   -4.3523 H       1  LIG1        0.0618
     31 H          -1.5133   -1.1952   -5.5262 H       1  LIG1        0.0626
     32 H           1.8334    0.8658   -3.0812 H       1  LIG1        0.1522
     33 H          -0.3453    1.7442   -6.3460 H       1  LIG1        0.2954
@<TRIPOS>BOND
     1    33    17    1
     2    17    16    1
     3    31    14    1
     4    16    18    2
     5    16    15    1
     6    14    15   ar
     7    14    13   ar
     8    30    13    1
     9    15    10   ar
    10    13    12   ar
    11    32     9    1
    12    10     9    1
    13    10    11   ar
    14    12    11   ar
    15    12    29    1
    16     9     8    1
    17    11    28    1
    18    27     7    1
    19     8     7   ar
    20     8     2   ar
    21     7     6   ar
    22    19     1    1
    23     1     2    1
    24     1    21    1
    25     1    20    1
    26     2     3   ar
    27     6    26    1
    28     6     5   ar
    29     3     5   ar
    30     3     4    1
    31     5    25    1
    32     4    24    1
    33     4    22    1
    34     4    23    1
