@<TRIPOS>MOLECULE
zmat140.com
 30 31 0 0 0
SMALL
GASTEIGER
Energy = 0

@<TRIPOS>ATOM
      1 C           0.0000    0.0000    0.0000 C.2     1  LIG1        0.3386
      2 C           1.4637    0.0000    0.0000 C.ar    1  LIG1        0.0799
      3 C           2.1605    0.0000    1.2214 C.ar    1  LIG1       -0.0460
      4 C           3.5419   -0.0204    1.2663 C.ar    1  LIG1       -0.0609
      5 C           4.2541   -0.0562    0.0607 C.ar    1  LIG1       -0.0600
      6 C           3.5988   -0.0529   -1.1565 C.ar    1  LIG1       -0.0397
      7 C           2.1906   -0.0068   -1.2247 C.ar    1  LIG1        0.0454
      8 N           1.5421   -0.0372   -2.4306 N.pl3   1  LIG1       -0.3136
      9 C           2.0671    0.2782   -3.6980 C.ar    1  LIG1        0.0357
     10 C           1.6703   -0.5432   -4.7605 C.ar    1  LIG1       -0.0402
     11 C           2.0983   -0.2886   -6.0555 C.ar    1  LIG1       -0.0586
     12 C           2.9464    0.7847   -6.3068 C.ar    1  LIG1       -0.0430
     13 C           3.3009    1.6183   -5.2519 C.ar    1  LIG1        0.0456
     14 C           2.8435    1.4346   -3.9386 C.ar    1  LIG1       -0.0110
     15 C           3.0956    2.4710   -2.8838 C.3     1  LIG1       -0.0366
     16 O          -0.5500    0.1052    1.2259 O.3     1  LIG1       -0.4771
     17 O          -0.7170   -0.0893   -0.9906 O.2     1  LIG1       -0.2451
     18 CL          4.3319    2.9797   -5.6161 Cl      1  LIG1       -0.0832
     19 H           1.5837    0.0116    2.1403 H       1  LIG1        0.0626
     20 H           4.0631   -0.0223    2.2187 H       1  LIG1        0.0618
     21 H           5.3406   -0.1001    0.0740 H       1  LIG1        0.0618
     22 H           4.1651   -0.1105   -2.0812 H       1  LIG1        0.0636
     23 H           1.0442   -1.4049   -4.5445 H       1  LIG1        0.0636
     24 H           1.7913   -0.9396   -6.8693 H       1  LIG1        0.0619
     25 H           3.3209    0.9872   -7.3049 H       1  LIG1        0.0632
     26 H           4.0942    2.3829   -2.4381 H       1  LIG1        0.0279
     27 H           3.0236    3.4726   -3.3176 H       1  LIG1        0.0279
     28 H           2.3655    2.3929   -2.0756 H       1  LIG1        0.0279
     29 H           0.5330   -0.1552   -2.3605 H       1  LIG1        0.1522
     30 H          -1.5120    0.0811    1.0904 H       1  LIG1        0.2954
@<TRIPOS>BOND
     1    25    12    1
     2    24    11    1
     3    12    11   ar
     4    12    13   ar
     5    11    10   ar
     6    18    13    1
     7    13    14   ar
     8    10    23    1
     9    10     9   ar
    10    14     9   ar
    11    14    15    1
    12     9     8    1
    13    27    15    1
    14    15    26    1
    15    15    28    1
    16     8    29    1
    17     8     7    1
    18    22     6    1
    19     7     6   ar
    20     7     2   ar
    21     6     5   ar
    22    17     1    2
    23     2     1    1
    24     2     3   ar
    25     1    16    1
    26     5    21    1
    27     5     4   ar
    28    30    16    1
    29     3     4   ar
    30     3    19    1
    31     4    20    1
