@<TRIPOS>MOLECULE
zmat145.com
 30 31 0 0 0
SMALL
GASTEIGER
Energy = 0

@<TRIPOS>ATOM
      1 C           0.0000    0.0000    0.0000 C.2     1  LIG1        0.3386
      2 C           1.4640    0.0000    0.0000 C.ar    1  LIG1        0.0799
      3 C           2.1605    0.0000    1.2217 C.ar    1  LIG1       -0.0460
      4 C           3.5419   -0.0211    1.2666 C.ar    1  LIG1       -0.0609
      5 C           4.2546   -0.0585    0.0614 C.ar    1  LIG1       -0.0600
      6 C           3.5991   -0.0551   -1.1556 C.ar    1  LIG1       -0.0397
      7 C           2.1911   -0.0062   -1.2240 C.ar    1  LIG1        0.0454
      8 N           1.5442   -0.0452   -2.4317 N.pl3   1  LIG1       -0.3136
      9 C           2.0423    0.3275   -3.6936 C.ar    1  LIG1        0.0357
     10 C           1.5954   -0.4331   -4.7821 C.ar    1  LIG1       -0.0402
     11 C           1.9915   -0.1284   -6.0758 C.ar    1  LIG1       -0.0586
     12 C           2.8559    0.9373   -6.3033 C.ar    1  LIG1       -0.0430
     13 C           3.2540    1.7159   -5.2227 C.ar    1  LIG1        0.0456
     14 C           2.8282    1.4837   -3.9059 C.ar    1  LIG1       -0.0110
     15 C           3.1146    2.4804   -2.8216 C.3     1  LIG1       -0.0366
     16 O          -0.5493    0.1125    1.2253 O.3     1  LIG1       -0.4771
     17 O          -0.7168   -0.0955   -0.9900 O.2     1  LIG1       -0.2451
     18 CL          4.2997    3.0744   -5.5561 Cl      1  LIG1       -0.0832
     19 H           1.5836    0.0120    2.1405 H       1  LIG1        0.0626
     20 H           4.0628   -0.0234    2.2192 H       1  LIG1        0.0618
     21 H           5.3411   -0.1048    0.0751 H       1  LIG1        0.0618
     22 H           4.1645   -0.1156   -2.0808 H       1  LIG1        0.0636
     23 H           0.9583   -1.2920   -4.5876 H       1  LIG1        0.0636
     24 H           1.6468   -0.7350   -6.9086 H       1  LIG1        0.0619
     25 H           3.2078    1.1769   -7.3014 H       1  LIG1        0.0632
     26 H           4.1171    2.3627   -2.3920 H       1  LIG1        0.0279
     27 H           3.0535    3.4959   -3.2232 H       1  LIG1        0.0279
     28 H           2.3945    2.3907   -2.0056 H       1  LIG1        0.0279
     29 H           0.5355   -0.1660   -2.3566 H       1  LIG1        0.1522
     30 H          -1.5114    0.0867    1.0906 H       1  LIG1        0.2954
@<TRIPOS>BOND
     1    25    12    1
     2    24    11    1
     3    12    11   ar
     4    12    13   ar
     5    11    10   ar
     6    18    13    1
     7    13    14   ar
     8    10    23    1
     9    10     9   ar
    10    14     9   ar
    11    14    15    1
    12     9     8    1
    13    27    15    1
    14    15    26    1
    15    15    28    1
    16     8    29    1
    17     8     7    1
    18    22     6    1
    19     7     6   ar
    20     7     2   ar
    21     6     5   ar
    22    17     1    2
    23     2     1    1
    24     2     3   ar
    25     1    16    1
    26     5    21    1
    27     5     4   ar
    28    30    16    1
    29     3     4   ar
    30     3    19    1
    31     4    20    1
