@<TRIPOS>MOLECULE
zmat180.com
 30 31 0 0 0
SMALL
GASTEIGER
Energy = 0

@<TRIPOS>ATOM
      1 C           0.0000    0.0000    0.0000 C.2     1  LIG1        0.3386
      2 C           1.4685    0.0000    0.0000 C.ar    1  LIG1        0.0799
      3 C           2.1593    0.0000    1.2250 C.ar    1  LIG1       -0.0460
      4 C           3.5406   -0.0448    1.2745 C.ar    1  LIG1       -0.0609
      5 C           4.2598   -0.1162    0.0754 C.ar    1  LIG1       -0.0600
      6 C           3.6043   -0.1157   -1.1419 C.ar    1  LIG1       -0.0397
      7 C           2.2013   -0.0217   -1.2164 C.ar    1  LIG1        0.0454
      8 N           1.5645   -0.0924   -2.4420 N.pl3   1  LIG1       -0.3136
      9 C           1.7868    0.6055   -3.6422 C.ar    1  LIG1        0.0357
     10 C           0.9100    0.2393   -4.6798 C.ar    1  LIG1       -0.0402
     11 C           1.0089    0.7976   -5.9412 C.ar    1  LIG1       -0.0586
     12 C           1.9882    1.7507   -6.2041 C.ar    1  LIG1       -0.0430
     13 C           2.7890    2.1730   -5.1523 C.ar    1  LIG1        0.0456
     14 C           2.6805    1.6865   -3.8365 C.ar    1  LIG1       -0.0110
     15 C           3.3791    2.4138   -2.7215 C.3     1  LIG1       -0.0366
     16 O          -0.5446    0.2068    1.2138 O.3     1  LIG1       -0.4771
     17 O          -0.7149   -0.1779   -0.9776 O.2     1  LIG1       -0.2451
     18 CL          3.9604    3.4222   -5.5067 Cl      1  LIG1       -0.0832
     19 H           1.5803    0.0278    2.1421 H       1  LIG1        0.0626
     20 H           4.0560   -0.0487    2.2302 H       1  LIG1        0.0618
     21 H           5.3441   -0.1949    0.0954 H       1  LIG1        0.0618
     22 H           4.1632   -0.2145   -2.0674 H       1  LIG1        0.0636
     23 H           0.1767   -0.5404   -4.4872 H       1  LIG1        0.0636
     24 H           0.3322    0.4798   -6.7296 H       1  LIG1        0.0619
     25 H           2.1147    2.1802   -7.1920 H       1  LIG1        0.0632
     26 H           4.4064    2.0694   -2.5497 H       1  LIG1        0.0279
     27 H           3.4371    3.4787   -2.9615 H       1  LIG1        0.0279
     28 H           2.8374    2.3155   -1.7797 H       1  LIG1        0.0279
     29 H           0.5767   -0.3111   -2.3191 H       1  LIG1        0.1522
     30 H          -1.5075    0.1624    1.0884 H       1  LIG1        0.2954
@<TRIPOS>BOND
     1    25    12    1
     2    24    11    1
     3    12    11   ar
     4    12    13   ar
     5    11    10   ar
     6    18    13    1
     7    13    14   ar
     8    10    23    1
     9    10     9   ar
    10    14     9   ar
    11    14    15    1
    12     9     8    1
    13    27    15    1
    14    15    26    1
    15    15    28    1
    16     8    29    1
    17     8     7    1
    18    22     6    1
    19     7     6   ar
    20     7     2   ar
    21     6     5   ar
    22    17     1    2
    23     2     1    1
    24     2     3   ar
    25     1    16    1
    26     5    21    1
    27     5     4   ar
    28    30    16    1
    29     3     4   ar
    30     3    19    1
    31     4    20    1
