@<TRIPOS>MOLECULE
zmat10.com
 30 31 0 0 0
SMALL
GASTEIGER
Energy = 0

@<TRIPOS>ATOM
      1 C           0.0000    0.0000    0.0000 C.2     1  LIG1        0.3386
      2 C           1.4675    0.0000    0.0000 C.ar    1  LIG1        0.0799
      3 C           2.1540    0.0000    1.2263 C.ar    1  LIG1       -0.0460
      4 C           3.5354    0.0278    1.2814 C.ar    1  LIG1       -0.0609
      5 C           4.2555    0.0797    0.0832 C.ar    1  LIG1       -0.0600
      6 C           3.6069    0.0781   -1.1394 C.ar    1  LIG1       -0.0397
      7 C           2.2015    0.0145   -1.2198 C.ar    1  LIG1        0.0454
      8 N           1.5492    0.0542   -2.4330 N.pl3   1  LIG1       -0.3136
      9 C           1.9379   -0.5321   -3.6448 C.ar    1  LIG1        0.0357
     10 C           2.9942   -1.4428   -3.7492 C.ar    1  LIG1       -0.0402
     11 C           3.3249   -1.9913   -4.9827 C.ar    1  LIG1       -0.0586
     12 C           2.6119   -1.6497   -6.1240 C.ar    1  LIG1       -0.0430
     13 C           1.5566   -0.7479   -6.0057 C.ar    1  LIG1        0.0456
     14 C           1.1959   -0.1570   -4.7923 C.ar    1  LIG1       -0.0110
     15 C           0.0783    0.8356   -4.6606 C.3     1  LIG1       -0.0366
     16 O          -0.5461   -0.1591    1.2204 O.3     1  LIG1       -0.4771
     17 O          -0.7174    0.1359   -0.9838 O.2     1  LIG1       -0.2451
     18 CL          0.6785   -0.3629   -7.4666 Cl      1  LIG1       -0.0832
     19 H           1.5712   -0.0171    2.1412 H       1  LIG1        0.0626
     20 H           4.0487    0.0281    2.2382 H       1  LIG1        0.0618
     21 H           5.3410    0.1412    0.1039 H       1  LIG1        0.0618
     22 H           4.1820    0.1688   -2.0545 H       1  LIG1        0.0636
     23 H           3.5285   -1.7611   -2.8613 H       1  LIG1        0.0636
     24 H           4.1404   -2.7065   -5.0503 H       1  LIG1        0.0619
     25 H           2.8552   -2.0749   -7.0919 H       1  LIG1        0.0632
     26 H          -0.2640    1.1847   -5.6355 H       1  LIG1        0.0279
     27 H          -0.7901    0.4030   -4.1446 H       1  LIG1        0.0279
     28 H           0.4020    1.7054   -4.0769 H       1  LIG1        0.0279
     29 H           0.5456    0.1896   -2.3252 H       1  LIG1        0.1522
     30 H          -1.5088   -0.1254    1.0908 H       1  LIG1        0.2954
@<TRIPOS>BOND
     1    18    13    1
     2    25    12    1
     3    12    13   ar
     4    12    11   ar
     5    13    14   ar
     6    26    15    1
     7    24    11    1
     8    11    10   ar
     9    14    15    1
    10    14     9   ar
    11    15    27    1
    12    15    28    1
    13    10     9   ar
    14    10    23    1
    15     9     8    1
    16     8    29    1
    17     8     7    1
    18    22     6    1
    19     7     6   ar
    20     7     2   ar
    21     6     5   ar
    22    17     1    2
    23     1     2    1
    24     1    16    1
    25     2     3   ar
    26     5    21    1
    27     5     4   ar
    28    30    16    1
    29     3     4   ar
    30     3    19    1
    31     4    20    1
