@<TRIPOS>MOLECULE
zmat95.com
 30 31 0 0 0
SMALL
GASTEIGER
Energy = 0

@<TRIPOS>ATOM
      1 C           0.0000    0.0000    0.0000 C.2     1  LIG1        0.3386
      2 C           1.4625    0.0000    0.0000 C.ar    1  LIG1        0.0799
      3 C           2.1613    0.0000    1.2198 C.ar    1  LIG1       -0.0460
      4 C           3.5429   -0.0258    1.2633 C.ar    1  LIG1       -0.0609
      5 C           4.2522   -0.0584    0.0565 C.ar    1  LIG1       -0.0600
      6 C           3.5964   -0.0560   -1.1612 C.ar    1  LIG1       -0.0397
      7 C           2.1872   -0.0189   -1.2271 C.ar    1  LIG1        0.0454
      8 N           1.5412    0.0201   -2.4313 N.pl3   1  LIG1       -0.3136
      9 C           2.1778   -0.1718   -3.6849 C.ar    1  LIG1        0.0357
     10 C           2.1729   -1.4476   -4.2526 C.ar    1  LIG1       -0.0402
     11 C           2.7626   -1.6697   -5.4917 C.ar    1  LIG1       -0.0586
     12 C           3.3804   -0.6186   -6.1607 C.ar    1  LIG1       -0.0430
     13 C           3.3880    0.6448   -5.5787 C.ar    1  LIG1        0.0456
     14 C           2.7883    0.9143   -4.3411 C.ar    1  LIG1       -0.0110
     15 C           2.7944    2.2916   -3.7510 C.3     1  LIG1       -0.0366
     16 O          -0.5514    0.0438    1.2299 O.3     1  LIG1       -0.4771
     17 O          -0.7178   -0.0407   -0.9936 O.2     1  LIG1       -0.2451
     18 CL          4.1745    1.9388   -6.4441 Cl      1  LIG1       -0.0832
     19 H           1.5855    0.0162    2.1394 H       1  LIG1        0.0626
     20 H           4.0655   -0.0260    2.2149 H       1  LIG1        0.0618
     21 H           5.3394   -0.0879    0.0679 H       1  LIG1        0.0618
     22 H           4.1651   -0.0885   -2.0854 H       1  LIG1        0.0636
     23 H           1.7000   -2.2596   -3.7069 H       1  LIG1        0.0636
     24 H           2.7518   -2.6617   -5.9347 H       1  LIG1        0.0619
     25 H           3.8556   -0.7689   -7.1252 H       1  LIG1        0.0632
     26 H           3.8149    2.6140   -3.5112 H       1  LIG1        0.0279
     27 H           2.3908    3.0213   -4.4616 H       1  LIG1        0.0279
     28 H           2.1974    2.3233   -2.8379 H       1  LIG1        0.0279
     29 H           0.5289   -0.0736   -2.3783 H       1  LIG1        0.1522
     30 H          -1.5132    0.0332    1.0912 H       1  LIG1        0.2954
@<TRIPOS>BOND
     1    25    12    1
     2    18    13    1
     3    12    13   ar
     4    12    11   ar
     5    24    11    1
     6    13    14   ar
     7    11    10   ar
     8    27    15    1
     9    14    15    1
    10    14     9   ar
    11    10    23    1
    12    10     9   ar
    13    15    26    1
    14    15    28    1
    15     9     8    1
    16     8    29    1
    17     8     7    1
    18    22     6    1
    19     7     6   ar
    20     7     2   ar
    21     6     5   ar
    22    17     1    2
    23     2     1    1
    24     2     3   ar
    25     1    16    1
    26     5    21    1
    27     5     4   ar
    28    30    16    1
    29     3     4   ar
    30     3    19    1
    31     4    20    1
