@<TRIPOS>MOLECULE
zmat130.com
 30 31 0 0 0
SMALL
GASTEIGER
Energy = 0

@<TRIPOS>ATOM
      1 C           0.0000    0.0000    0.0000 C.2     1  LIG1        0.3386
      2 C           1.4632    0.0000    0.0000 C.ar    1  LIG1        0.0799
      3 C           2.1600    0.0000    1.2212 C.ar    1  LIG1       -0.0460
      4 C           3.5416   -0.0185    1.2665 C.ar    1  LIG1       -0.0609
      5 C           4.2532   -0.0497    0.0608 C.ar    1  LIG1       -0.0600
      6 C           3.5985   -0.0452   -1.1570 C.ar    1  LIG1       -0.0397
      7 C           2.1899   -0.0048   -1.2255 C.ar    1  LIG1        0.0454
      8 N           1.5403   -0.0136   -2.4293 N.pl3   1  LIG1       -0.3136
      9 C           2.1106    0.1905   -3.7016 C.ar    1  LIG1        0.0357
     10 C           1.8101   -0.7463   -4.6961 C.ar    1  LIG1       -0.0402
     11 C           2.2979   -0.5918   -5.9868 C.ar    1  LIG1       -0.0586
     12 C           3.1118    0.4929   -6.2946 C.ar    1  LIG1       -0.0430
     13 C           3.3827    1.4319   -5.3048 C.ar    1  LIG1        0.0456
     14 C           2.8683    1.3438   -4.0038 C.ar    1  LIG1       -0.0110
     15 C           3.0606    2.4549   -3.0156 C.3     1  LIG1       -0.0366
     16 O          -0.5508    0.0901    1.2269 O.3     1  LIG1       -0.4771
     17 O          -0.7170   -0.0770   -0.9919 O.2     1  LIG1       -0.2451
     18 CL          4.3836    2.7947   -5.7384 Cl      1  LIG1       -0.0832
     19 H           1.5829    0.0100    2.1399 H       1  LIG1        0.0626
     20 H           4.0627   -0.0203    2.2189 H       1  LIG1        0.0618
     21 H           5.3400   -0.0884    0.0737 H       1  LIG1        0.0618
     22 H           4.1670   -0.0947   -2.0808 H       1  LIG1        0.0636
     23 H           1.2062   -1.6103   -4.4314 H       1  LIG1        0.0636
     24 H           2.0637   -1.3279   -6.7509 H       1  LIG1        0.0619
     25 H           3.5279    0.6218   -7.2886 H       1  LIG1        0.0632
     26 H           4.0558    2.4305   -2.5541 H       1  LIG1        0.0279
     27 H           2.9598    3.4250   -3.5114 H       1  LIG1        0.0279
     28 H           2.3211    2.3965   -2.2143 H       1  LIG1        0.0279
     29 H           0.5308   -0.1308   -2.3690 H       1  LIG1        0.1522
     30 H          -1.5127    0.0692    1.0900 H       1  LIG1        0.2954
@<TRIPOS>BOND
     1    25    12    1
     2    24    11    1
     3    12    11   ar
     4    12    13   ar
     5    11    10   ar
     6    18    13    1
     7    13    14   ar
     8    10    23    1
     9    10     9   ar
    10    14     9   ar
    11    14    15    1
    12     9     8    1
    13    27    15    1
    14    15    26    1
    15    15    28    1
    16     8    29    1
    17     8     7    1
    18    22     6    1
    19     7     6   ar
    20     7     2   ar
    21     6     5   ar
    22    17     1    2
    23     2     1    1
    24     2     3   ar
    25     1    16    1
    26     5    21    1
    27     5     4   ar
    28    30    16    1
    29     3     4   ar
    30     3    19    1
    31     4    20    1
