@<TRIPOS>MOLECULE
zmat30.com
 30 31 0 0 0
SMALL
GASTEIGER
Energy = 0

@<TRIPOS>ATOM
      1 C           0.0000    0.0000    0.0000 C.2     1  LIG1        0.3386
      2 C           1.4651    0.0000    0.0000 C.ar    1  LIG1        0.0799
      3 C           2.1555    0.0000    1.2246 C.ar    1  LIG1       -0.0460
      4 C           3.5366    0.0239    1.2766 C.ar    1  LIG1       -0.0609
      5 C           4.2531    0.0667    0.0747 C.ar    1  LIG1       -0.0600
      6 C           3.6037    0.0631   -1.1465 C.ar    1  LIG1       -0.0397
      7 C           2.1961    0.0133   -1.2232 C.ar    1  LIG1        0.0454
      8 N           1.5398    0.0419   -2.4280 N.pl3   1  LIG1       -0.3136
      9 C           2.0253   -0.3522   -3.6835 C.ar    1  LIG1        0.0357
     10 C           2.9822   -1.3629   -3.8220 C.ar    1  LIG1       -0.0402
     11 C           3.4097   -1.7524   -5.0849 C.ar    1  LIG1       -0.0586
     12 C           2.8754   -1.1593   -6.2226 C.ar    1  LIG1       -0.0430
     13 C           1.9101   -0.1674   -6.0715 C.ar    1  LIG1        0.0456
     14 C           1.4701    0.2782   -4.8206 C.ar    1  LIG1       -0.0110
     15 C           0.4526    1.3675   -4.6510 C.3     1  LIG1       -0.0366
     16 O          -0.5487   -0.1226    1.2242 O.3     1  LIG1       -0.4771
     17 O          -0.7180    0.1045   -0.9882 O.2     1  LIG1       -0.2451
     18 CL          1.2498    0.5309   -7.5297 Cl      1  LIG1       -0.0832
     19 H           1.5743   -0.0151    2.1406 H       1  LIG1        0.0626
     20 H           4.0531    0.0244    2.2315 H       1  LIG1        0.0618
     21 H           5.3392    0.1174    0.0921 H       1  LIG1        0.0618
     22 H           4.1791    0.1303   -2.0636 H       1  LIG1        0.0636
     23 H           3.3648   -1.8656   -2.9394 H       1  LIG1        0.0636
     24 H           4.1497   -2.5418   -5.1851 H       1  LIG1        0.0619
     25 H           3.1878   -1.4622   -7.2165 H       1  LIG1        0.0632
     26 H           0.3793    1.9884   -5.5456 H       1  LIG1        0.0279
     27 H          -0.5484    0.9591   -4.4546 H       1  LIG1        0.0279
     28 H           0.7149    2.0079   -3.8025 H       1  LIG1        0.0279
     29 H           0.5310    0.1505   -2.3385 H       1  LIG1        0.1522
     30 H          -1.5110   -0.0966    1.0905 H       1  LIG1        0.2954
@<TRIPOS>BOND
     1    18    13    1
     2    25    12    1
     3    12    13   ar
     4    12    11   ar
     5    13    14   ar
     6    26    15    1
     7    24    11    1
     8    11    10   ar
     9    14    15    1
    10    14     9   ar
    11    15    27    1
    12    15    28    1
    13    10     9   ar
    14    10    23    1
    15     9     8    1
    16     8    29    1
    17     8     7    1
    18    22     6    1
    19     7     6   ar
    20     7     2   ar
    21     6     5   ar
    22    17     1    2
    23     1     2    1
    24     1    16    1
    25     2     3   ar
    26     5    21    1
    27     5     4   ar
    28    30    16    1
    29     3     4   ar
    30     3    19    1
    31     4    20    1
