@<TRIPOS>MOLECULE
zmat35.com
 30 31 0 0 0
SMALL
GASTEIGER
Energy = 0

@<TRIPOS>ATOM
      1 C           0.0000    0.0000    0.0000 C.2     1  LIG1        0.3386
      2 C           1.4646    0.0000    0.0000 C.ar    1  LIG1        0.0799
      3 C           2.1560    0.0000    1.2242 C.ar    1  LIG1       -0.0460
      4 C           3.5370    0.0225    1.2753 C.ar    1  LIG1       -0.0609
      5 C           4.2527    0.0621    0.0725 C.ar    1  LIG1       -0.0600
      6 C           3.6029    0.0577   -1.1483 C.ar    1  LIG1       -0.0397
      7 C           2.1948    0.0113   -1.2239 C.ar    1  LIG1        0.0454
      8 N           1.5387    0.0329   -2.4276 N.pl3   1  LIG1       -0.3136
      9 C           2.0471   -0.3197   -3.6876 C.ar    1  LIG1        0.0357
     10 C           2.9724   -1.3580   -3.8371 C.ar    1  LIG1       -0.0402
     11 C           3.4241   -1.7162   -5.1005 C.ar    1  LIG1       -0.0586
     12 C           2.9411   -1.0644   -6.2296 C.ar    1  LIG1       -0.0430
     13 C           2.0062   -0.0460   -6.0685 C.ar    1  LIG1        0.0456
     14 C           1.5468    0.3709   -4.8140 C.ar    1  LIG1       -0.0110
     15 C           0.5630    1.4895   -4.6389 C.3     1  LIG1       -0.0366
     16 O          -0.5494   -0.1117    1.2251 O.3     1  LIG1       -0.4771
     17 O          -0.7180    0.0954   -0.9894 O.2     1  LIG1       -0.2451
     18 CL          1.4077    0.7265   -7.5155 Cl      1  LIG1       -0.0832
     19 H           1.5753   -0.0138    2.1405 H       1  LIG1        0.0626
     20 H           4.0543    0.0231    2.2298 H       1  LIG1        0.0618
     21 H           5.3390    0.1095    0.0891 H       1  LIG1        0.0618
     22 H           4.1781    0.1182   -2.0662 H       1  LIG1        0.0636
     23 H           3.3131   -1.9014   -2.9611 H       1  LIG1        0.0636
     24 H           4.1402   -2.5263   -5.2098 H       1  LIG1        0.0619
     25 H           3.2706   -1.3426   -7.2254 H       1  LIG1        0.0632
     26 H           0.5965    2.1848   -5.4801 H       1  LIG1        0.0279
     27 H          -0.4673    1.1143   -4.5692 H       1  LIG1        0.0279
     28 H           0.7725    2.0443   -3.7190 H       1  LIG1        0.0279
     29 H           0.5288    0.1344   -2.3432 H       1  LIG1        0.1522
     30 H          -1.5116   -0.0878    1.0904 H       1  LIG1        0.2954
@<TRIPOS>BOND
     1    18    13    1
     2    25    12    1
     3    12    13   ar
     4    12    11   ar
     5    13    14   ar
     6    26    15    1
     7    24    11    1
     8    11    10   ar
     9    14    15    1
    10    14     9   ar
    11    15    27    1
    12    15    28    1
    13    10     9   ar
    14    10    23    1
    15     9     8    1
    16     8    29    1
    17     8     7    1
    18    22     6    1
    19     7     6   ar
    20     7     2   ar
    21     6     5   ar
    22    17     1    2
    23     1     2    1
    24     1    16    1
    25     2     3   ar
    26     5    21    1
    27     5     4   ar
    28    30    16    1
    29     3     4   ar
    30     3    19    1
    31     4    20    1
