@<TRIPOS>MOLECULE
zmat65.com
 30 31 0 0 0
SMALL
GASTEIGER
Energy = 0

@<TRIPOS>ATOM
      1 C           0.0000    0.0000    0.0000 C.2     1  LIG1        0.3386
      2 C           1.4622    0.0000    0.0000 C.ar    1  LIG1        0.0799
      3 C           2.1586    0.0000    1.2216 C.ar    1  LIG1       -0.0460
      4 C           3.5397    0.0207    1.2683 C.ar    1  LIG1       -0.0609
      5 C           4.2510    0.0513    0.0622 C.ar    1  LIG1       -0.0600
      6 C           3.5985    0.0481   -1.1569 C.ar    1  LIG1       -0.0397
      7 C           2.1888    0.0126   -1.2269 C.ar    1  LIG1        0.0454
      8 N           1.5369    0.0032   -2.4276 N.pl3   1  LIG1       -0.3136
      9 C           2.1491   -0.0575   -3.6991 C.ar    1  LIG1        0.0357
     10 C           2.8667   -1.2015   -4.0600 C.ar    1  LIG1       -0.0402
     11 C           3.4396   -1.3038   -5.3208 C.ar    1  LIG1       -0.0586
     12 C           3.2742   -0.2753   -6.2436 C.ar    1  LIG1       -0.0430
     13 C           2.5443    0.8501   -5.8776 C.ar    1  LIG1        0.0456
     14 C           1.9771    1.0072   -4.6052 C.ar    1  LIG1       -0.0110
     15 C           1.2211    2.2455   -4.2273 C.3     1  LIG1       -0.0366
     16 O          -0.5522   -0.0640    1.2283 O.3     1  LIG1       -0.4771
     17 O          -0.7179    0.0565   -0.9932 O.2     1  LIG1       -0.2451
     18 CL          2.3410    2.1109   -7.0660 Cl      1  LIG1       -0.0832
     19 H           1.5806   -0.0132    2.1398 H       1  LIG1        0.0626
     20 H           4.0606    0.0212    2.2208 H       1  LIG1        0.0618
     21 H           5.3380    0.0842    0.0752 H       1  LIG1        0.0618
     22 H           4.1710    0.0840   -2.0781 H       1  LIG1        0.0636
     23 H           2.9584   -2.0099   -3.3399 H       1  LIG1        0.0636
     24 H           3.9976   -2.1940   -5.5976 H       1  LIG1        0.0619
     25 H           3.6968   -0.3420   -7.2411 H       1  LIG1        0.0632
     26 H           1.7520    3.1437   -4.5577 H       1  LIG1        0.0279
     27 H           0.2315    2.2683   -4.7013 H       1  LIG1        0.0279
     28 H           1.0809    2.3005   -3.1454 H       1  LIG1        0.0279
     29 H           0.5234    0.0776   -2.3680 H       1  LIG1        0.1522
     30 H          -1.5139   -0.0501    1.0892 H       1  LIG1        0.2954
@<TRIPOS>BOND
     1    25    12    1
     2    18    13    1
     3    12    13   ar
     4    12    11   ar
     5    13    14   ar
     6    24    11    1
     7    11    10   ar
     8    27    15    1
     9    14    15    1
    10    14     9   ar
    11    26    15    1
    12    15    28    1
    13    10     9   ar
    14    10    23    1
    15     9     8    1
    16     8    29    1
    17     8     7    1
    18    22     6    1
    19     7     6   ar
    20     7     2   ar
    21     6     5   ar
    22    17     1    2
    23     1     2    1
    24     1    16    1
    25     2     3   ar
    26     5    21    1
    27     5     4   ar
    28    30    16    1
    29     3     4   ar
    30     3    19    1
    31     4    20    1
