@<TRIPOS>MOLECULE
zmat170.com
 30 31 0 0 0
SMALL
GASTEIGER
Energy = 0

@<TRIPOS>ATOM
      1 C           0.0000    0.0000    0.0000 C.2     1  LIG1        0.3386
      2 C           1.4669    0.0000    0.0000 C.ar    1  LIG1        0.0799
      3 C           2.1606    0.0000    1.2235 C.ar    1  LIG1       -0.0460
      4 C           3.5419   -0.0358    1.2704 C.ar    1  LIG1       -0.0609
      5 C           4.2587   -0.0951    0.0686 C.ar    1  LIG1       -0.0600
      6 C           3.6024   -0.0921   -1.1480 C.ar    1  LIG1       -0.0397
      7 C           2.1974   -0.0124   -1.2189 C.ar    1  LIG1        0.0454
      8 N           1.5588   -0.0751   -2.4391 N.pl3   1  LIG1       -0.3136
      9 C           1.8761    0.5441   -3.6602 C.ar    1  LIG1        0.0357
     10 C           1.1273    0.0801   -4.7552 C.ar    1  LIG1       -0.0402
     11 C           1.3255    0.5840   -6.0288 C.ar    1  LIG1       -0.0586
     12 C           2.2820    1.5716   -6.2438 C.ar    1  LIG1       -0.0430
     13 C           2.9573    2.0835   -5.1441 C.ar    1  LIG1        0.0456
     14 C           2.7387    1.6550   -3.8228 C.ar    1  LIG1       -0.0110
     15 C           3.2889    2.4589   -2.6787 C.3     1  LIG1       -0.0366
     16 O          -0.5464    0.1734    1.2185 O.3     1  LIG1       -0.4771
     17 O          -0.7153   -0.1482   -0.9831 O.2     1  LIG1       -0.2451
     18 CL          4.0991    3.3724   -5.4460 Cl      1  LIG1       -0.0832
     19 H           1.5829    0.0208    2.1417 H       1  LIG1        0.0626
     20 H           4.0597   -0.0396    2.2248 H       1  LIG1        0.0618
     21 H           5.3438   -0.1638    0.0860 H       1  LIG1        0.0618
     22 H           4.1622   -0.1773   -2.0747 H       1  LIG1        0.0636
     23 H           0.4180   -0.7277   -4.5918 H       1  LIG1        0.0636
     24 H           0.7486    0.1943   -6.8630 H       1  LIG1        0.0619
     25 H           2.4861    1.9591   -7.2362 H       1  LIG1        0.0632
     26 H           4.3123    2.1790   -2.4004 H       1  LIG1        0.0279
     27 H           3.3102    3.5169   -2.9533 H       1  LIG1        0.0279
     28 H           2.6676    2.3573   -1.7870 H       1  LIG1        0.0279
     29 H           0.5614   -0.2558   -2.3322 H       1  LIG1        0.1522
     30 H          -1.5091    0.1354    1.0897 H       1  LIG1        0.2954
@<TRIPOS>BOND
     1    25    12    1
     2    24    11    1
     3    12    11   ar
     4    12    13   ar
     5    11    10   ar
     6    18    13    1
     7    13    14   ar
     8    10    23    1
     9    10     9   ar
    10    14     9   ar
    11    14    15    1
    12     9     8    1
    13    27    15    1
    14    15    26    1
    15    15    28    1
    16     8    29    1
    17     8     7    1
    18    22     6    1
    19     7     6   ar
    20     7     2   ar
    21     6     5   ar
    22    17     1    2
    23     2     1    1
    24     2     3   ar
    25     1    16    1
    26     5    21    1
    27     5     4   ar
    28    30    16    1
    29     3     4   ar
    30     3    19    1
    31     4    20    1
