@<TRIPOS>MOLECULE
zmat165.com
 30 31 0 0 0
SMALL
GASTEIGER
Energy = 0

@<TRIPOS>ATOM
      1 C           0.0000    0.0000    0.0000 C.2     1  LIG1        0.3386
      2 C           1.4661    0.0000    0.0000 C.ar    1  LIG1        0.0799
      3 C           2.1607    0.0000    1.2232 C.ar    1  LIG1       -0.0460
      4 C           3.5420   -0.0297    1.2695 C.ar    1  LIG1       -0.0609
      5 C           4.2579   -0.0818    0.0668 C.ar    1  LIG1       -0.0600
      6 C           3.6018   -0.0783   -1.1497 C.ar    1  LIG1       -0.0397
      7 C           2.1959   -0.0070   -1.2200 C.ar    1  LIG1        0.0454
      8 N           1.5564   -0.0662   -2.4375 N.pl3   1  LIG1       -0.3136
      9 C           1.9165    0.5095   -3.6682 C.ar    1  LIG1        0.0357
     10 C           1.2321   -0.0102   -4.7791 C.ar    1  LIG1       -0.0402
     11 C           1.4743    0.4614   -6.0581 C.ar    1  LIG1       -0.0586
     12 C           2.4142    1.4671   -6.2606 C.ar    1  LIG1       -0.0430
     13 C           3.0288    2.0289   -5.1493 C.ar    1  LIG1        0.0456
     14 C           2.7619    1.6341   -3.8269 C.ar    1  LIG1       -0.0110
     15 C           3.2474    2.4761   -2.6818 C.3     1  LIG1       -0.0366
     16 O          -0.5473    0.1528    1.2211 O.3     1  LIG1       -0.4771
     17 O          -0.7156   -0.1301   -0.9859 O.2     1  LIG1       -0.2451
     18 CL          4.1511    3.3372   -5.4399 Cl      1  LIG1       -0.0832
     19 H           1.5831    0.0160    2.1415 H       1  LIG1        0.0626
     20 H           4.0605   -0.0333    2.2235 H       1  LIG1        0.0618
     21 H           5.3434   -0.1440    0.0833 H       1  LIG1        0.0618
     22 H           4.1627   -0.1558   -2.0764 H       1  LIG1        0.0636
     23 H           0.5373   -0.8315   -4.6209 H       1  LIG1        0.0636
     24 H           0.9466    0.0317   -6.9051 H       1  LIG1        0.0619
     25 H           2.6522    1.8304   -7.2548 H       1  LIG1        0.0632
     26 H           4.2672    2.2291   -2.3620 H       1  LIG1        0.0279
     27 H           3.2505    3.5289   -2.9773 H       1  LIG1        0.0279
     28 H           2.5974    2.3735   -1.8107 H       1  LIG1        0.0279
     29 H           0.5553   -0.2296   -2.3382 H       1  LIG1        0.1522
     30 H          -1.5098    0.1187    1.0904 H       1  LIG1        0.2954
@<TRIPOS>BOND
     1    25    12    1
     2    24    11    1
     3    12    11   ar
     4    12    13   ar
     5    11    10   ar
     6    18    13    1
     7    13    14   ar
     8    10    23    1
     9    10     9   ar
    10    14     9   ar
    11    14    15    1
    12     9     8    1
    13    27    15    1
    14    15    26    1
    15    15    28    1
    16     8    29    1
    17     8     7    1
    18    22     6    1
    19     7     6   ar
    20     7     2   ar
    21     6     5   ar
    22    17     1    2
    23     2     1    1
    24     2     3   ar
    25     1    16    1
    26     5    21    1
    27     5     4   ar
    28    30    16    1
    29     3     4   ar
    30     3    19    1
    31     4    20    1
