@<TRIPOS>MOLECULE
zmat55.com
 30 31 0 0 0
SMALL
GASTEIGER
Energy = 0

@<TRIPOS>ATOM
      1 C           0.0000    0.0000    0.0000 C.2     1  LIG1        0.3386
      2 C           1.4627    0.0000    0.0000 C.ar    1  LIG1        0.0799
      3 C           2.1575    0.0000    1.2225 C.ar    1  LIG1       -0.0460
      4 C           3.5385    0.0213    1.2707 C.ar    1  LIG1       -0.0609
      5 C           4.2511    0.0550    0.0655 C.ar    1  LIG1       -0.0600
      6 C           3.5998    0.0509   -1.1541 C.ar    1  LIG1       -0.0397
      7 C           2.1905    0.0119   -1.2262 C.ar    1  LIG1        0.0454
      8 N           1.5364    0.0111   -2.4270 N.pl3   1  LIG1       -0.3136
      9 C           2.1214   -0.1429   -3.6998 C.ar    1  LIG1        0.0357
     10 C           2.9202   -1.2588   -3.9697 C.ar    1  LIG1       -0.0402
     11 C           3.4590   -1.4478   -5.2350 C.ar    1  LIG1       -0.0586
     12 C           3.1790   -0.5420   -6.2536 C.ar    1  LIG1       -0.0430
     13 C           2.3683    0.5532   -5.9770 C.ar    1  LIG1        0.0456
     14 C           1.8331    0.8014   -4.7059 C.ar    1  LIG1       -0.0110
     15 C           0.9895    2.0089   -4.4248 C.3     1  LIG1       -0.0366
     16 O          -0.5515   -0.0768    1.2275 O.3     1  LIG1       -0.4771
     17 O          -0.7179    0.0673   -0.9924 O.2     1  LIG1       -0.2451
     18 CL          2.0203    1.6560   -7.2835 Cl      1  LIG1       -0.0832
     19 H           1.5785   -0.0132    2.1400 H       1  LIG1        0.0626
     20 H           4.0582    0.0220    2.2238 H       1  LIG1        0.0618
     21 H           5.3380    0.0929    0.0796 H       1  LIG1        0.0618
     22 H           4.1735    0.0943   -2.0741 H       1  LIG1        0.0636
     23 H           3.0994   -1.9812   -3.1783 H       1  LIG1        0.0636
     24 H           4.0792   -2.3163   -5.4394 H       1  LIG1        0.0619
     25 H           3.5732   -0.6820   -7.2551 H       1  LIG1        0.0632
     26 H           1.3951    2.8948   -4.9222 H       1  LIG1        0.0279
     27 H          -0.0354    1.8765   -4.7953 H       1  LIG1        0.0279
     28 H           0.9377    2.2052   -3.3511 H       1  LIG1        0.0279
     29 H           0.5237    0.0904   -2.3603 H       1  LIG1        0.1522
     30 H          -1.5133   -0.0597    1.0895 H       1  LIG1        0.2954
@<TRIPOS>BOND
     1    18    13    1
     2    25    12    1
     3    12    13   ar
     4    12    11   ar
     5    13    14   ar
     6    24    11    1
     7    11    10   ar
     8    26    15    1
     9    27    15    1
    10    14    15    1
    11    14     9   ar
    12    15    28    1
    13    10     9   ar
    14    10    23    1
    15     9     8    1
    16     8    29    1
    17     8     7    1
    18    22     6    1
    19     7     6   ar
    20     7     2   ar
    21     6     5   ar
    22    17     1    2
    23     1     2    1
    24     1    16    1
    25     2     3   ar
    26     5    21    1
    27     5     4   ar
    28    30    16    1
    29     3     4   ar
    30     3    19    1
    31     4    20    1
