@<TRIPOS>MOLECULE
zmat80.com
 30 31 0 0 0
SMALL
GASTEIGER
Energy = 0

@<TRIPOS>ATOM
      1 C           0.0000    0.0000    0.0000 C.2     1  LIG1        0.3386
      2 C           1.4616    0.0000    0.0000 C.ar    1  LIG1        0.0799
      3 C           2.1610    0.0000    1.2199 C.ar    1  LIG1       -0.0460
      4 C           3.5424    0.0120    1.2632 C.ar    1  LIG1       -0.0609
      5 C           4.2516    0.0282    0.0554 C.ar    1  LIG1       -0.0600
      6 C           3.5964    0.0257   -1.1621 C.ar    1  LIG1       -0.0397
      7 C           2.1860    0.0061   -1.2282 C.ar    1  LIG1        0.0454
      8 N           1.5389   -0.0038   -2.4295 N.pl3   1  LIG1       -0.3136
      9 C           2.1820   -0.0082   -3.6930 C.ar    1  LIG1        0.0357
     10 C           2.6820   -1.2142   -4.1891 C.ar    1  LIG1       -0.0402
     11 C           3.2921   -1.2637   -5.4365 C.ar    1  LIG1       -0.0586
     12 C           3.3929   -0.1064   -6.2024 C.ar    1  LIG1       -0.0430
     13 C           2.8866    1.0867   -5.6990 C.ar    1  LIG1        0.0456
     14 C           2.2786    1.1818   -4.4392 C.ar    1  LIG1       -0.0110
     15 C           1.7576    2.4870   -3.9186 C.3     1  LIG1       -0.0366
     16 O          -0.5528   -0.0352    1.2296 O.3     1  LIG1       -0.4771
     17 O          -0.7177    0.0318   -0.9946 O.2     1  LIG1       -0.2451
     18 CL          3.0219    2.5157   -6.6897 Cl      1  LIG1       -0.0832
     19 H           1.5851   -0.0077    2.1396 H       1  LIG1        0.0626
     20 H           4.0655    0.0126    2.2146 H       1  LIG1        0.0618
     21 H           5.3390    0.0454    0.0665 H       1  LIG1        0.0618
     22 H           4.1655    0.0413   -2.0863 H       1  LIG1        0.0636
     23 H           2.5797   -2.1082   -3.5804 H       1  LIG1        0.0636
     24 H           3.6792   -2.2030   -5.8215 H       1  LIG1        0.0619
     25 H           3.8556   -0.1219   -7.1844 H       1  LIG1        0.0632
     26 H           2.5349    3.2583   -3.9507 H       1  LIG1        0.0279
     27 H           0.9248    2.8514   -4.5322 H       1  LIG1        0.0279
     28 H           1.4090    2.3840   -2.8893 H       1  LIG1        0.0279
     29 H           0.5232    0.0400   -2.3808 H       1  LIG1        0.1522
     30 H          -1.5143   -0.0273    1.0896 H       1  LIG1        0.2954
@<TRIPOS>BOND
     1    25    12    1
     2    18    13    1
     3    12    13   ar
     4    12    11   ar
     5    24    11    1
     6    13    14   ar
     7    11    10   ar
     8    27    15    1
     9    14    15    1
    10    14     9   ar
    11    10     9   ar
    12    10    23    1
    13    26    15    1
    14    15    28    1
    15     9     8    1
    16     8    29    1
    17     8     7    1
    18    22     6    1
    19     7     6   ar
    20     7     2   ar
    21     6     5   ar
    22    17     1    2
    23     2     1    1
    24     2     3   ar
    25     1    16    1
    26     5    21    1
    27     5     4   ar
    28    30    16    1
    29     3     4   ar
    30     3    19    1
    31     4    20    1
