@<TRIPOS>MOLECULE
zmat150.com
 30 31 0 0 0
SMALL
GASTEIGER
Energy = 0

@<TRIPOS>ATOM
      1 C           0.0000    0.0000    0.0000 C.2     1  LIG1        0.3386
      2 C           1.4645    0.0000    0.0000 C.ar    1  LIG1        0.0799
      3 C           2.1607    0.0000    1.2220 C.ar    1  LIG1       -0.0460
      4 C           3.5421   -0.0232    1.2672 C.ar    1  LIG1       -0.0609
      5 C           4.2556   -0.0639    0.0624 C.ar    1  LIG1       -0.0600
      6 C           3.5999   -0.0600   -1.1544 C.ar    1  LIG1       -0.0397
      7 C           2.1923   -0.0058   -1.2230 C.ar    1  LIG1        0.0454
      8 N           1.5475   -0.0503   -2.4331 N.pl3   1  LIG1       -0.3136
      9 C           2.0167    0.3772   -3.6884 C.ar    1  LIG1        0.0357
     10 C           1.5141   -0.3214   -4.7952 C.ar    1  LIG1       -0.0402
     11 C           1.8763    0.0292   -6.0865 C.ar    1  LIG1       -0.0586
     12 C           2.7610    1.0819   -6.2969 C.ar    1  LIG1       -0.0430
     13 C           3.2085    1.8046   -5.1975 C.ar    1  LIG1        0.0456
     14 C           2.8168    1.5280   -3.8780 C.ar    1  LIG1       -0.0110
     15 C           3.1450    2.4858   -2.7703 C.3     1  LIG1       -0.0366
     16 O          -0.5493    0.1214    1.2243 O.3     1  LIG1       -0.4771
     17 O          -0.7165   -0.1031   -0.9894 O.2     1  LIG1       -0.2451
     18 CL          4.2737    3.1539   -5.5076 Cl      1  LIG1       -0.0832
     19 H           1.5837    0.0129    2.1408 H       1  LIG1        0.0626
     20 H           4.0624   -0.0259    2.2201 H       1  LIG1        0.0618
     21 H           5.3418   -0.1142    0.0767 H       1  LIG1        0.0618
     22 H           4.1641   -0.1242   -2.0801 H       1  LIG1        0.0636
     23 H           0.8630   -1.1735   -4.6175 H       1  LIG1        0.0636
     24 H           1.4892   -0.5322   -6.9323 H       1  LIG1        0.0619
     25 H           3.0887    1.3552   -7.2944 H       1  LIG1        0.0632
     26 H           4.1526    2.3378   -2.3625 H       1  LIG1        0.0279
     27 H           3.0962    3.5132   -3.1422 H       1  LIG1        0.0279
     28 H           2.4387    2.3885   -1.9433 H       1  LIG1        0.0279
     29 H           0.5400   -0.1784   -2.3527 H       1  LIG1        0.1522
     30 H          -1.5115    0.0937    1.0904 H       1  LIG1        0.2954
@<TRIPOS>BOND
     1    25    12    1
     2    24    11    1
     3    12    11   ar
     4    12    13   ar
     5    11    10   ar
     6    18    13    1
     7    13    14   ar
     8    10    23    1
     9    10     9   ar
    10    14     9   ar
    11    14    15    1
    12     9     8    1
    13    27    15    1
    14    15    26    1
    15    15    28    1
    16     8    29    1
    17     8     7    1
    18    22     6    1
    19     7     6   ar
    20     7     2   ar
    21     6     5   ar
    22    17     1    2
    23     2     1    1
    24     2     3   ar
    25     1    16    1
    26     5    21    1
    27     5     4   ar
    28    30    16    1
    29     3     4   ar
    30     3    19    1
    31     4    20    1
