@<TRIPOS>MOLECULE
zmat40.com
 30 31 0 0 0
SMALL
GASTEIGER
Energy = 0

@<TRIPOS>ATOM
      1 C           0.0000    0.0000    0.0000 C.2     1  LIG1        0.3386
      2 C           1.4641    0.0000    0.0000 C.ar    1  LIG1        0.0799
      3 C           2.1562    0.0000    1.2238 C.ar    1  LIG1       -0.0460
      4 C           3.5372    0.0221    1.2744 C.ar    1  LIG1       -0.0609
      5 C           4.2522    0.0601    0.0711 C.ar    1  LIG1       -0.0600
      6 C           3.6023    0.0550   -1.1494 C.ar    1  LIG1       -0.0397
      7 C           2.1939    0.0103   -1.2245 C.ar    1  LIG1        0.0454
      8 N           1.5380    0.0246   -2.4272 N.pl3   1  LIG1       -0.3136
      9 C           2.0684   -0.2768   -3.6926 C.ar    1  LIG1        0.0357
     10 C           2.9677   -1.3342   -3.8648 C.ar    1  LIG1       -0.0402
     11 C           3.4438   -1.6496   -5.1304 C.ar    1  LIG1       -0.0586
     12 C           3.0078   -0.9352   -6.2411 C.ar    1  LIG1       -0.0430
     13 C           2.0974    0.1013   -6.0585 C.ar    1  LIG1        0.0456
     14 C           1.6171    0.4767   -4.7982 C.ar    1  LIG1       -0.0110
     15 C           0.6595    1.6145   -4.6035 C.3     1  LIG1       -0.0366
     16 O          -0.5501   -0.1003    1.2259 O.3     1  LIG1       -0.4771
     17 O          -0.7180    0.0858   -0.9905 O.2     1  LIG1       -0.2451
     18 CL          1.5555    0.9528   -7.4830 Cl      1  LIG1       -0.0832
     19 H           1.5758   -0.0131    2.1404 H       1  LIG1        0.0626
     20 H           4.0551    0.0228    2.2287 H       1  LIG1        0.0618
     21 H           5.3386    0.1054    0.0871 H       1  LIG1        0.0618
     22 H           4.1774    0.1108   -2.0676 H       1  LIG1        0.0636
     23 H           3.2702   -1.9220   -3.0033 H       1  LIG1        0.0636
     24 H           4.1404   -2.4738   -5.2580 H       1  LIG1        0.0619
     25 H           3.3551   -1.1791   -7.2397 H       1  LIG1        0.0632
     26 H           0.7774    2.3708   -5.3827 H       1  LIG1        0.0279
     27 H          -0.3842    1.2736   -4.6392 H       1  LIG1        0.0279
     28 H           0.8181    2.0883   -3.6302 H       1  LIG1        0.0279
     29 H           0.5272    0.1206   -2.3476 H       1  LIG1        0.1522
     30 H          -1.5122   -0.0788    1.0900 H       1  LIG1        0.2954
@<TRIPOS>BOND
     1    18    13    1
     2    25    12    1
     3    12    13   ar
     4    12    11   ar
     5    13    14   ar
     6    26    15    1
     7    24    11    1
     8    11    10   ar
     9    14    15    1
    10    14     9   ar
    11    27    15    1
    12    15    28    1
    13    10     9   ar
    14    10    23    1
    15     9     8    1
    16     8    29    1
    17     8     7    1
    18    22     6    1
    19     7     6   ar
    20     7     2   ar
    21     6     5   ar
    22    17     1    2
    23     1     2    1
    24     1    16    1
    25     2     3   ar
    26     5    21    1
    27     5     4   ar
    28    30    16    1
    29     3     4   ar
    30     3    19    1
    31     4    20    1
