@<TRIPOS>MOLECULE
zmat125.com
 30 31 0 0 0
SMALL
GASTEIGER
Energy = 0

@<TRIPOS>ATOM
      1 C           0.0000    0.0000    0.0000 C.2     1  LIG1        0.3386
      2 C           1.4630    0.0000    0.0000 C.ar    1  LIG1        0.0799
      3 C           2.1597    0.0000    1.2211 C.ar    1  LIG1       -0.0460
      4 C           3.5413   -0.0178    1.2667 C.ar    1  LIG1       -0.0609
      5 C           4.2528   -0.0465    0.0610 C.ar    1  LIG1       -0.0600
      6 C           3.5984   -0.0408   -1.1571 C.ar    1  LIG1       -0.0397
      7 C           2.1897   -0.0027   -1.2258 C.ar    1  LIG1        0.0454
      8 N           1.5399    0.0011   -2.4290 N.pl3   1  LIG1       -0.3136
      9 C           2.1284    0.1490   -3.7018 C.ar    1  LIG1        0.0357
     10 C           1.8711   -0.8426   -4.6535 C.ar    1  LIG1       -0.0402
     11 C           2.3847   -0.7399   -5.9398 C.ar    1  LIG1       -0.0586
     12 C           3.1823    0.3464   -6.2824 C.ar    1  LIG1       -0.0430
     13 C           3.4162    1.3359   -5.3331 C.ar    1  LIG1        0.0456
     14 C           2.8779    1.2972   -4.0396 C.ar    1  LIG1       -0.0110
     15 C           3.0465    2.4454   -3.0906 C.3     1  LIG1       -0.0366
     16 O          -0.5511    0.0849    1.2273 O.3     1  LIG1       -0.4771
     17 O          -0.7169   -0.0728   -0.9923 O.2     1  LIG1       -0.2451
     18 CL          4.4030    2.6948   -5.8085 Cl      1  LIG1       -0.0832
     19 H           1.5824    0.0091    2.1397 H       1  LIG1        0.0626
     20 H           4.0624   -0.0197    2.2192 H       1  LIG1        0.0618
     21 H           5.3397   -0.0827    0.0737 H       1  LIG1        0.0618
     22 H           4.1676   -0.0856   -2.0805 H       1  LIG1        0.0636
     23 H           1.2776   -1.7044   -4.3601 H       1  LIG1        0.0636
     24 H           2.1829   -1.5164   -6.6725 H       1  LIG1        0.0619
     25 H           3.6160    0.4368   -7.2732 H       1  LIG1        0.0632
     26 H           4.0425    2.4550   -2.6306 H       1  LIG1        0.0279
     27 H           2.9276    3.3965   -3.6185 H       1  LIG1        0.0279
     28 H           2.3083    2.3987   -2.2875 H       1  LIG1        0.0279
     29 H           0.5308   -0.1195   -2.3728 H       1  LIG1        0.1522
     30 H          -1.5130    0.0650    1.0899 H       1  LIG1        0.2954
@<TRIPOS>BOND
     1    25    12    1
     2    24    11    1
     3    12    11   ar
     4    12    13   ar
     5    11    10   ar
     6    18    13    1
     7    13    14   ar
     8    10    23    1
     9    10     9   ar
    10    14     9   ar
    11    14    15    1
    12     9     8    1
    13    27    15    1
    14    15    26    1
    15    15    28    1
    16     8    29    1
    17     8     7    1
    18    22     6    1
    19     7     6   ar
    20     7     2   ar
    21     6     5   ar
    22    17     1    2
    23     2     1    1
    24     2     3   ar
    25     1    16    1
    26     5    21    1
    27     5     4   ar
    28    30    16    1
    29     3     4   ar
    30     3    19    1
    31     4    20    1
