@<TRIPOS>MOLECULE
zmat100.com
 30 31 0 0 0
SMALL
GASTEIGER
Energy = 0

@<TRIPOS>ATOM
      1 C           0.0000    0.0000    0.0000 C.2     1  LIG1        0.3386
      2 C           1.4628    0.0000    0.0000 C.ar    1  LIG1        0.0799
      3 C           2.1607    0.0000    1.2202 C.ar    1  LIG1       -0.0460
      4 C           3.5422   -0.0308    1.2647 C.ar    1  LIG1       -0.0609
      5 C           4.2520   -0.0704    0.0586 C.ar    1  LIG1       -0.0600
      6 C           3.5969   -0.0684   -1.1596 C.ar    1  LIG1       -0.0397
      7 C           2.1882   -0.0241   -1.2268 C.ar    1  LIG1        0.0454
      8 N           1.5405    0.0129   -2.4308 N.pl3   1  LIG1       -0.3136
      9 C           2.1709   -0.1643   -3.6881 C.ar    1  LIG1        0.0357
     10 C           2.0845   -1.4118   -4.3101 C.ar    1  LIG1       -0.0402
     11 C           2.6620   -1.6189   -5.5575 C.ar    1  LIG1       -0.0586
     12 C           3.3514   -0.5842   -6.1803 C.ar    1  LIG1       -0.0430
     13 C           3.4379    0.6506   -5.5455 C.ar    1  LIG1        0.0456
     14 C           2.8487    0.9081   -4.3004 C.ar    1  LIG1       -0.0110
     15 C           2.9266    2.2617   -3.6623 C.3     1  LIG1       -0.0366
     16 O          -0.5511    0.0627    1.2290 O.3     1  LIG1       -0.4771
     17 O          -0.7178   -0.0558   -0.9927 O.2     1  LIG1       -0.2451
     18 CL          4.3101    1.9257   -6.3553 Cl      1  LIG1       -0.0832
     19 H           1.5844    0.0199    2.1394 H       1  LIG1        0.0626
     20 H           4.0643   -0.0311    2.2166 H       1  LIG1        0.0618
     21 H           5.3390   -0.1071    0.0706 H       1  LIG1        0.0618
     22 H           4.1665   -0.1105   -2.0827 H       1  LIG1        0.0636
     23 H           1.5606   -2.2149   -3.7989 H       1  LIG1        0.0636
     24 H           2.5882   -2.5888   -6.0416 H       1  LIG1        0.0619
     25 H           3.8213   -0.7251   -7.1486 H       1  LIG1        0.0632
     26 H           3.9569    2.5080   -3.3776 H       1  LIG1        0.0279
     27 H           2.5964    3.0388   -4.3603 H       1  LIG1        0.0279
     28 H           2.3018    2.3046   -2.7684 H       1  LIG1        0.0279
     29 H           0.5300   -0.0962   -2.3751 H       1  LIG1        0.1522
     30 H          -1.5129    0.0483    1.0909 H       1  LIG1        0.2954
@<TRIPOS>BOND
     1    25    12    1
     2    18    13    1
     3    12    11   ar
     4    12    13   ar
     5    24    11    1
     6    11    10   ar
     7    13    14   ar
     8    27    15    1
     9    10    23    1
    10    10     9   ar
    11    14     9   ar
    12    14    15    1
    13     9     8    1
    14    15    26    1
    15    15    28    1
    16     8    29    1
    17     8     7    1
    18    22     6    1
    19     7     6   ar
    20     7     2   ar
    21     6     5   ar
    22    17     1    2
    23     2     1    1
    24     2     3   ar
    25     1    16    1
    26     5    21    1
    27     5     4   ar
    28    30    16    1
    29     3     4   ar
    30     3    19    1
    31     4    20    1
