@<TRIPOS>MOLECULE
zmat85.com
 30 31 0 0 0
SMALL
GASTEIGER
Energy = 0

@<TRIPOS>ATOM
      1 C           0.0000    0.0000    0.0000 C.2     1  LIG1        0.3386
      2 C           1.4615    0.0000    0.0000 C.ar    1  LIG1        0.0799
      3 C           2.1617    0.0000    1.2195 C.ar    1  LIG1       -0.0460
      4 C           3.5432    0.0110    1.2617 C.ar    1  LIG1       -0.0609
      5 C           4.2520    0.0251    0.0535 C.ar    1  LIG1       -0.0600
      6 C           3.5959    0.0231   -1.1636 C.ar    1  LIG1       -0.0397
      7 C           2.1853    0.0059   -1.2284 C.ar    1  LIG1        0.0454
      8 N           1.5393   -0.0022   -2.4299 N.pl3   1  LIG1       -0.3136
      9 C           2.1876    0.0033   -3.6919 C.ar    1  LIG1        0.0357
     10 C           2.6019   -1.2130   -4.2385 C.ar    1  LIG1       -0.0402
     11 C           3.2156   -1.2524   -5.4848 C.ar    1  LIG1       -0.0586
     12 C           3.4119   -0.0725   -6.1951 C.ar    1  LIG1       -0.0430
     13 C           2.9930    1.1319   -5.6400 C.ar    1  LIG1        0.0456
     14 C           2.3791    1.2151   -4.3826 C.ar    1  LIG1       -0.0110
     15 C           1.9464    2.5305   -3.8097 C.3     1  LIG1       -0.0366
     16 O          -0.5526   -0.0208    1.2301 O.3     1  LIG1       -0.4771
     17 O          -0.7177    0.0194   -0.9948 O.2     1  LIG1       -0.2451
     18 CL          3.2482    2.5904   -6.5615 Cl      1  LIG1       -0.0832
     19 H           1.5864   -0.0070    2.1395 H       1  LIG1        0.0626
     20 H           4.0669    0.0115    2.2128 H       1  LIG1        0.0618
     21 H           5.3394    0.0391    0.0640 H       1  LIG1        0.0618
     22 H           4.1639    0.0343   -2.0887 H       1  LIG1        0.0636
     23 H           2.4311   -2.1226   -3.6696 H       1  LIG1        0.0636
     24 H           3.5354   -2.1998   -5.9100 H       1  LIG1        0.0619
     25 H           3.8824   -0.0782   -7.1734 H       1  LIG1        0.0632
     26 H           2.7863    3.2327   -3.7647 H       1  LIG1        0.0279
     27 H           1.1771    2.9971   -4.4367 H       1  LIG1        0.0279
     28 H           1.5426    2.4028   -2.8037 H       1  LIG1        0.0279
     29 H           0.5229    0.0210   -2.3836 H       1  LIG1        0.1522
     30 H          -1.5141   -0.0159    1.0901 H       1  LIG1        0.2954
@<TRIPOS>BOND
     1    25    12    1
     2    18    13    1
     3    12    13   ar
     4    12    11   ar
     5    24    11    1
     6    13    14   ar
     7    11    10   ar
     8    27    15    1
     9    14    15    1
    10    14     9   ar
    11    10     9   ar
    12    10    23    1
    13    15    26    1
    14    15    28    1
    15     9     8    1
    16     8    29    1
    17     8     7    1
    18    22     6    1
    19     7     6   ar
    20     7     2   ar
    21     6     5   ar
    22    17     1    2
    23     2     1    1
    24     2     3   ar
    25     1    16    1
    26     5    21    1
    27     5     4   ar
    28    30    16    1
    29     3     4   ar
    30     3    19    1
    31     4    20    1
