@<TRIPOS>MOLECULE
zmat60.com
 30 31 0 0 0
SMALL
GASTEIGER
Energy = 0

@<TRIPOS>ATOM
      1 C           0.0000    0.0000    0.0000 C.2     1  LIG1        0.3386
      2 C           1.4624    0.0000    0.0000 C.ar    1  LIG1        0.0799
      3 C           2.1579    0.0000    1.2220 C.ar    1  LIG1       -0.0460
      4 C           3.5389    0.0209    1.2696 C.ar    1  LIG1       -0.0609
      5 C           4.2509    0.0533    0.0641 C.ar    1  LIG1       -0.0600
      6 C           3.5991    0.0506   -1.1553 C.ar    1  LIG1       -0.0397
      7 C           2.1896    0.0142   -1.2265 C.ar    1  LIG1        0.0454
      8 N           1.5365    0.0128   -2.4272 N.pl3   1  LIG1       -0.3136
      9 C           2.1359   -0.0903   -3.7003 C.ar    1  LIG1        0.0357
     10 C           2.8952   -1.2207   -4.0173 C.ar    1  LIG1       -0.0402
     11 C           3.4528   -1.3613   -5.2810 C.ar    1  LIG1       -0.0586
     12 C           3.2310   -0.3884   -6.2509 C.ar    1  LIG1       -0.0430
     13 C           2.4599    0.7226   -5.9279 C.ar    1  LIG1        0.0456
     14 C           1.9069    0.9202   -4.6552 C.ar    1  LIG1       -0.0110
     15 C           1.1073    2.1445   -4.3237 C.3     1  LIG1       -0.0366
     16 O          -0.5519   -0.0713    1.2279 O.3     1  LIG1       -0.4771
     17 O          -0.7179    0.0622   -0.9928 O.2     1  LIG1       -0.2451
     18 CL          2.1858    1.9122   -7.1743 Cl      1  LIG1       -0.0832
     19 H           1.5793   -0.0137    2.1398 H       1  LIG1        0.0626
     20 H           4.0592    0.0212    2.2224 H       1  LIG1        0.0618
     21 H           5.3379    0.0883    0.0777 H       1  LIG1        0.0618
     22 H           4.1724    0.0911   -2.0758 H       1  LIG1        0.0636
     23 H           3.0303   -1.9903   -3.2624 H       1  LIG1        0.0636
     24 H           4.0426   -2.2412   -5.5230 H       1  LIG1        0.0619
     25 H           3.6407   -0.4878   -7.2511 H       1  LIG1        0.0632
     26 H           1.5795    3.0427   -4.7330 H       1  LIG1        0.0279
     27 H           0.0985    2.0913   -4.7533 H       1  LIG1        0.0279
     28 H           1.0092    2.2636   -3.2423 H       1  LIG1        0.0279
     29 H           0.5234    0.0887   -2.3639 H       1  LIG1        0.1522
     30 H          -1.5137   -0.0560    1.0893 H       1  LIG1        0.2954
@<TRIPOS>BOND
     1    25    12    1
     2    18    13    1
     3    12    13   ar
     4    12    11   ar
     5    13    14   ar
     6    24    11    1
     7    11    10   ar
     8    27    15    1
     9    26    15    1
    10    14    15    1
    11    14     9   ar
    12    15    28    1
    13    10     9   ar
    14    10    23    1
    15     9     8    1
    16     8    29    1
    17     8     7    1
    18    22     6    1
    19     7     6   ar
    20     7     2   ar
    21     6     5   ar
    22    17     1    2
    23     1     2    1
    24     1    16    1
    25     2     3   ar
    26     5    21    1
    27     5     4   ar
    28    30    16    1
    29     3     4   ar
    30     3    19    1
    31     4    20    1
