@<TRIPOS>MOLECULE
zmat135.com
 30 31 0 0 0
SMALL
GASTEIGER
Energy = 0

@<TRIPOS>ATOM
      1 C           0.0000    0.0000    0.0000 C.2     1  LIG1        0.3386
      2 C           1.4634    0.0000    0.0000 C.ar    1  LIG1        0.0799
      3 C           2.1603    0.0000    1.2212 C.ar    1  LIG1       -0.0460
      4 C           3.5417   -0.0195    1.2662 C.ar    1  LIG1       -0.0609
      5 C           4.2535   -0.0533    0.0605 C.ar    1  LIG1       -0.0600
      6 C           3.5985   -0.0494   -1.1569 C.ar    1  LIG1       -0.0397
      7 C           2.1901   -0.0061   -1.2253 C.ar    1  LIG1        0.0454
      8 N           1.5408   -0.0260   -2.4298 N.pl3   1  LIG1       -0.3136
      9 C           2.0898    0.2338   -3.7004 C.ar    1  LIG1        0.0357
     10 C           1.7422   -0.6458   -4.7321 C.ar    1  LIG1       -0.0402
     11 C           2.2011   -0.4405   -6.0257 C.ar    1  LIG1       -0.0586
     12 C           3.0322    0.6395   -6.3030 C.ar    1  LIG1       -0.0430
     13 C           3.3440    1.5260   -5.2779 C.ar    1  LIG1        0.0456
     14 C           2.8568    1.3896   -3.9702 C.ar    1  LIG1       -0.0110
     15 C           3.0771    2.4634   -2.9467 C.3     1  LIG1       -0.0366
     16 O          -0.5504    0.0967    1.2265 O.3     1  LIG1       -0.4771
     17 O          -0.7171   -0.0824   -0.9913 O.2     1  LIG1       -0.2451
     18 CL          4.3602    2.8892   -5.6742 Cl      1  LIG1       -0.0832
     19 H           1.5834    0.0110    2.1401 H       1  LIG1        0.0626
     20 H           4.0630   -0.0213    2.2186 H       1  LIG1        0.0618
     21 H           5.3401   -0.0947    0.0735 H       1  LIG1        0.0618
     22 H           4.1658   -0.1033   -2.0812 H       1  LIG1        0.0636
     23 H           1.1271   -1.5094   -4.4933 H       1  LIG1        0.0636
     24 H           1.9313   -1.1344   -6.8171 H       1  LIG1        0.0619
     25 H           3.4284    0.8058   -7.2995 H       1  LIG1        0.0632
     26 H           4.0726    2.4056   -2.4893 H       1  LIG1        0.0279
     27 H           2.9930    3.4503   -3.4113 H       1  LIG1        0.0279
     28 H           2.3396    2.3954   -2.1443 H       1  LIG1        0.0279
     29 H           0.5313   -0.1422   -2.3649 H       1  LIG1        0.1522
     30 H          -1.5123    0.0746    1.0903 H       1  LIG1        0.2954
@<TRIPOS>BOND
     1    25    12    1
     2    24    11    1
     3    12    11   ar
     4    12    13   ar
     5    11    10   ar
     6    18    13    1
     7    13    14   ar
     8    10    23    1
     9    10     9   ar
    10    14     9   ar
    11    14    15    1
    12     9     8    1
    13    27    15    1
    14    15    26    1
    15    15    28    1
    16     8    29    1
    17     8     7    1
    18    22     6    1
    19     7     6   ar
    20     7     2   ar
    21     6     5   ar
    22    17     1    2
    23     2     1    1
    24     2     3   ar
    25     1    16    1
    26     5    21    1
    27     5     4   ar
    28    30    16    1
    29     3     4   ar
    30     3    19    1
    31     4    20    1
