@<TRIPOS>MOLECULE
zmat15.com
 30 31 0 0 0
SMALL
GASTEIGER
Energy = 0

@<TRIPOS>ATOM
      1 C           0.0000    0.0000    0.0000 C.2     1  LIG1        0.3386
      2 C           1.4668    0.0000    0.0000 C.ar    1  LIG1        0.0799
      3 C           2.1540    0.0000    1.2261 C.ar    1  LIG1       -0.0460
      4 C           3.5352    0.0287    1.2809 C.ar    1  LIG1       -0.0609
      5 C           4.2546    0.0809    0.0819 C.ar    1  LIG1       -0.0600
      6 C           3.6062    0.0792   -1.1404 C.ar    1  LIG1       -0.0397
      7 C           2.2003    0.0171   -1.2206 C.ar    1  LIG1        0.0454
      8 N           1.5466    0.0569   -2.4311 N.pl3   1  LIG1       -0.3136
      9 C           1.9621   -0.4749   -3.6591 C.ar    1  LIG1        0.0357
     10 C           2.9994   -1.4063   -3.7713 C.ar    1  LIG1       -0.0402
     11 C           3.3571   -1.9070   -5.0173 C.ar    1  LIG1       -0.0586
     12 C           2.6860   -1.4994   -6.1628 C.ar    1  LIG1       -0.0430
     13 C           1.6469   -0.5802   -6.0364 C.ar    1  LIG1        0.0456
     14 C           1.2632   -0.0334   -4.8091 C.ar    1  LIG1       -0.0110
     15 C           0.1639    0.9778   -4.6668 C.3     1  LIG1       -0.0366
     16 O          -0.5469   -0.1500    1.2214 O.3     1  LIG1       -0.4771
     17 O          -0.7176    0.1280   -0.9850 O.2     1  LIG1       -0.2451
     18 CL          0.8202   -0.1131   -7.5031 Cl      1  LIG1       -0.0832
     19 H           1.5713   -0.0182    2.1411 H       1  LIG1        0.0626
     20 H           4.0491    0.0288    2.2373 H       1  LIG1        0.0618
     21 H           5.3401    0.1416    0.1021 H       1  LIG1        0.0618
     22 H           4.1818    0.1665   -2.0557 H       1  LIG1        0.0636
     23 H           3.4973   -1.7746   -2.8810 H       1  LIG1        0.0636
     24 H           4.1582   -2.6375   -5.0928 H       1  LIG1        0.0619
     25 H           2.9490   -1.8881   -7.1409 H       1  LIG1        0.0632
     26 H          -0.1208    1.3980   -5.6322 H       1  LIG1        0.0279
     27 H          -0.7393    0.5354   -4.2238 H       1  LIG1        0.0279
     28 H           0.4781    1.7979   -4.0113 H       1  LIG1        0.0279
     29 H           0.5412    0.1822   -2.3273 H       1  LIG1        0.1522
     30 H          -1.5095   -0.1184    1.0906 H       1  LIG1        0.2954
@<TRIPOS>BOND
     1    18    13    1
     2    25    12    1
     3    12    13   ar
     4    12    11   ar
     5    13    14   ar
     6    26    15    1
     7    24    11    1
     8    11    10   ar
     9    14    15    1
    10    14     9   ar
    11    15    27    1
    12    15    28    1
    13    10     9   ar
    14    10    23    1
    15     9     8    1
    16     8    29    1
    17     8     7    1
    18    22     6    1
    19     7     6   ar
    20     7     2   ar
    21     6     5   ar
    22    17     1    2
    23     1     2    1
    24     1    16    1
    25     2     3   ar
    26     5    21    1
    27     5     4   ar
    28    30    16    1
    29     3     4   ar
    30     3    19    1
    31     4    20    1
