@<TRIPOS>MOLECULE
zmat160.com
 30 31 0 0 0
SMALL
GASTEIGER
Energy = 0

@<TRIPOS>ATOM
      1 C           0.0000    0.0000    0.0000 C.2     1  LIG1        0.3386
      2 C           1.4655    0.0000    0.0000 C.ar    1  LIG1        0.0799
      3 C           2.1606    0.0000    1.2228 C.ar    1  LIG1       -0.0460
      4 C           3.5420   -0.0287    1.2689 C.ar    1  LIG1       -0.0609
      5 C           4.2572   -0.0775    0.0654 C.ar    1  LIG1       -0.0600
      6 C           3.6013   -0.0738   -1.1511 C.ar    1  LIG1       -0.0397
      7 C           2.1946   -0.0080   -1.2209 C.ar    1  LIG1        0.0454
      8 N           1.5535   -0.0640   -2.4359 N.pl3   1  LIG1       -0.3136
      9 C           1.9549    0.4608   -3.6768 C.ar    1  LIG1        0.0357
     10 C           1.3318   -0.1175   -4.7938 C.ar    1  LIG1       -0.0402
     11 C           1.6201    0.3116   -6.0786 C.ar    1  LIG1       -0.0586
     12 C           2.5463    1.3307   -6.2783 C.ar    1  LIG1       -0.0430
     13 C           3.1030    1.9458   -5.1646 C.ar    1  LIG1        0.0456
     14 C           2.7882    1.5926   -3.8417 C.ar    1  LIG1       -0.0110
     15 C           3.2155    2.4767   -2.7055 C.3     1  LIG1       -0.0366
     16 O          -0.5481    0.1438    1.2220 O.3     1  LIG1       -0.4771
     17 O          -0.7159   -0.1227   -0.9870 O.2     1  LIG1       -0.2451
     18 CL          4.2118    3.2649   -5.4548 Cl      1  LIG1       -0.0832
     19 H           1.5832    0.0160    2.1413 H       1  LIG1        0.0626
     20 H           4.0611   -0.0321    2.2224 H       1  LIG1        0.0618
     21 H           5.3430   -0.1363    0.0812 H       1  LIG1        0.0618
     22 H           4.1633   -0.1472   -2.0775 H       1  LIG1        0.0636
     23 H           0.6485   -0.9476   -4.6327 H       1  LIG1        0.0636
     24 H           1.1406   -0.1619   -6.9308 H       1  LIG1        0.0619
     25 H           2.8192    1.6619   -7.2747 H       1  LIG1        0.0632
     26 H           4.2320    2.2655   -2.3517 H       1  LIG1        0.0279
     27 H           3.1982    3.5218   -3.0272 H       1  LIG1        0.0279
     28 H           2.5437    2.3752   -1.8510 H       1  LIG1        0.0279
     29 H           0.5496   -0.2130   -2.3430 H       1  LIG1        0.1522
     30 H          -1.5105    0.1113    1.0901 H       1  LIG1        0.2954
@<TRIPOS>BOND
     1    25    12    1
     2    24    11    1
     3    12    11   ar
     4    12    13   ar
     5    11    10   ar
     6    18    13    1
     7    13    14   ar
     8    10    23    1
     9    10     9   ar
    10    14     9   ar
    11    14    15    1
    12     9     8    1
    13    27    15    1
    14    15    26    1
    15    15    28    1
    16     8    29    1
    17     8     7    1
    18    22     6    1
    19     7     6   ar
    20     7     2   ar
    21     6     5   ar
    22    17     1    2
    23     2     1    1
    24     2     3   ar
    25     1    16    1
    26     5    21    1
    27     5     4   ar
    28    30    16    1
    29     3     4   ar
    30     3    19    1
    31     4    20    1
