@<TRIPOS>MOLECULE
zmat0.com
 30 31 0 0 0
SMALL
GASTEIGER
Energy = 0

@<TRIPOS>ATOM
      1 C           0.0000    0.0000    0.0000 C.2     1  LIG1        0.3386
      2 C           1.4688    0.0000    0.0000 C.ar    1  LIG1        0.0799
      3 C           2.1535    0.0000    1.2271 C.ar    1  LIG1       -0.0460
      4 C           3.5353    0.0272    1.2835 C.ar    1  LIG1       -0.0609
      5 C           4.2573    0.0803    0.0872 C.ar    1  LIG1       -0.0600
      6 C           3.6085    0.0803   -1.1359 C.ar    1  LIG1       -0.0397
      7 C           2.2043    0.0135   -1.2180 C.ar    1  LIG1        0.0454
      8 N           1.5561    0.0555   -2.4377 N.pl3   1  LIG1       -0.3136
      9 C           1.8901   -0.6310   -3.6136 C.ar    1  LIG1        0.0357
     10 C           2.9831   -1.4975   -3.7167 C.ar    1  LIG1       -0.0402
     11 C           3.2601   -2.1345   -4.9209 C.ar    1  LIG1       -0.0586
     12 C           2.4644   -1.9190   -6.0373 C.ar    1  LIG1       -0.0430
     13 C           1.3786   -1.0534   -5.9227 C.ar    1  LIG1        0.0456
     14 C           1.0643   -0.3816   -4.7392 C.ar    1  LIG1       -0.0110
     15 C          -0.0872    0.5731   -4.6173 C.3     1  LIG1       -0.0366
     16 O          -0.5449   -0.1783    1.2179 O.3     1  LIG1       -0.4771
     17 O          -0.7167    0.1522   -0.9811 O.2     1  LIG1       -0.2451
     18 CL          0.3993   -0.8242   -7.3520 Cl      1  LIG1       -0.0832
     19 H           1.5701   -0.0168    2.1416 H       1  LIG1        0.0626
     20 H           4.0471    0.0276    2.2412 H       1  LIG1        0.0618
     21 H           5.3426    0.1439    0.1093 H       1  LIG1        0.0618
     22 H           4.1831    0.1798   -2.0505 H       1  LIG1        0.0636
     23 H           3.5891   -1.7195   -2.8464 H       1  LIG1        0.0636
     24 H           4.1036   -2.8169   -4.9835 H       1  LIG1        0.0619
     25 H           2.6678   -2.4117   -6.9821 H       1  LIG1        0.0632
     26 H          -0.5321    0.7890   -5.5891 H       1  LIG1        0.0279
     27 H          -0.8826    0.1706   -3.9749 H       1  LIG1        0.0279
     28 H           0.2406    1.5207   -4.1729 H       1  LIG1        0.0279
     29 H           0.5566    0.2116   -2.3227 H       1  LIG1        0.1522
     30 H          -1.5078   -0.1413    1.0906 H       1  LIG1        0.2954
@<TRIPOS>BOND
     1    18    13    1
     2    25    12    1
     3    12    13   ar
     4    12    11   ar
     5    13    14   ar
     6    26    15    1
     7    24    11    1
     8    11    10   ar
     9    14    15    1
    10    14     9   ar
    11    15    28    1
    12    15    27    1
    13    10     9   ar
    14    10    23    1
    15     9     8    1
    16     8    29    1
    17     8     7    1
    18    22     6    1
    19     7     6   ar
    20     7     2   ar
    21     6     5   ar
    22    17     1    2
    23     1     2    1
    24     1    16    1
    25     2     3   ar
    26     5    21    1
    27     5     4   ar
    28    30    16    1
    29     3     4   ar
    30     3    19    1
    31     4    20    1
