@<TRIPOS>MOLECULE
zmat175.com
 30 31 0 0 0
SMALL
GASTEIGER
Energy = 0

@<TRIPOS>ATOM
      1 C           0.0000    0.0000    0.0000 C.2     1  LIG1        0.3386
      2 C           1.4677    0.0000    0.0000 C.ar    1  LIG1        0.0799
      3 C           2.1602    0.0000    1.2242 C.ar    1  LIG1       -0.0460
      4 C           3.5415   -0.0405    1.2722 C.ar    1  LIG1       -0.0609
      5 C           4.2593   -0.1062    0.0716 C.ar    1  LIG1       -0.0600
      6 C           3.6033   -0.1042   -1.1452 C.ar    1  LIG1       -0.0397
      7 C           2.1992   -0.0166   -1.2177 C.ar    1  LIG1        0.0454
      8 N           1.5616   -0.0827   -2.4405 N.pl3   1  LIG1       -0.3136
      9 C           1.8331    0.5774   -3.6514 C.ar    1  LIG1        0.0357
     10 C           1.0199    0.1652   -4.7218 C.ar    1  LIG1       -0.0402
     11 C           1.1701    0.6983   -5.9895 C.ar    1  LIG1       -0.0586
     12 C           2.1403    1.6678   -6.2247 C.ar    1  LIG1       -0.0430
     13 C           2.8782    2.1326   -5.1448 C.ar    1  LIG1        0.0456
     14 C           2.7123    1.6737   -3.8258 C.ar    1  LIG1       -0.0110
     15 C           3.3335    2.4395   -2.6914 C.3     1  LIG1       -0.0366
     16 O          -0.5456    0.1894    1.2164 O.3     1  LIG1       -0.4771
     17 O          -0.7151   -0.1623   -0.9806 O.2     1  LIG1       -0.2451
     18 CL          4.0369    3.4016   -5.4678 Cl      1  LIG1       -0.0832
     19 H           1.5819    0.0244    2.1420 H       1  LIG1        0.0626
     20 H           4.0582   -0.0444    2.2272 H       1  LIG1        0.0618
     21 H           5.3440   -0.1804    0.0902 H       1  LIG1        0.0618
     22 H           4.1625   -0.1963   -2.0715 H       1  LIG1        0.0636
     23 H           0.2973   -0.6285   -4.5471 H       1  LIG1        0.0636
     24 H           0.5431    0.3466   -6.8041 H       1  LIG1        0.0619
     25 H           2.3072    2.0777   -7.2151 H       1  LIG1        0.0632
     26 H           4.3599    2.1276   -2.4624 H       1  LIG1        0.0279
     27 H           3.3728    3.5017   -2.9474 H       1  LIG1        0.0279
     28 H           2.7483    2.3393   -1.7758 H       1  LIG1        0.0279
     29 H           0.5685   -0.2812   -2.3259 H       1  LIG1        0.1522
     30 H          -1.5083    0.1484    1.0892 H       1  LIG1        0.2954
@<TRIPOS>BOND
     1    25    12    1
     2    24    11    1
     3    12    11   ar
     4    12    13   ar
     5    11    10   ar
     6    18    13    1
     7    13    14   ar
     8    10    23    1
     9    10     9   ar
    10    14     9   ar
    11    14    15    1
    12     9     8    1
    13    27    15    1
    14    15    26    1
    15    15    28    1
    16     8    29    1
    17     8     7    1
    18    22     6    1
    19     7     6   ar
    20     7     2   ar
    21     6     5   ar
    22    17     1    2
    23     2     1    1
    24     2     3   ar
    25     1    16    1
    26     5    21    1
    27     5     4   ar
    28    30    16    1
    29     3     4   ar
    30     3    19    1
    31     4    20    1
