@<TRIPOS>MOLECULE
zmat105.com
 30 31 0 0 0
SMALL
GASTEIGER
Energy = 0

@<TRIPOS>ATOM
      1 C           0.0000    0.0000    0.0000 C.2     1  LIG1        0.3386
      2 C           1.4629    0.0000    0.0000 C.ar    1  LIG1        0.0799
      3 C           2.1600    0.0000    1.2207 C.ar    1  LIG1       -0.0460
      4 C           3.5414   -0.0360    1.2660 C.ar    1  LIG1       -0.0609
      5 C           4.2516   -0.0842    0.0605 C.ar    1  LIG1       -0.0600
      6 C           3.5970   -0.0830   -1.1581 C.ar    1  LIG1       -0.0397
      7 C           2.1888   -0.0302   -1.2263 C.ar    1  LIG1        0.0454
      8 N           1.5394    0.0013   -2.4301 N.pl3   1  LIG1       -0.3136
      9 C           2.1623   -0.1526   -3.6921 C.ar    1  LIG1        0.0357
     10 C           2.0054   -1.3644   -4.3690 C.ar    1  LIG1       -0.0402
     11 C           2.5701   -1.5483   -5.6256 C.ar    1  LIG1       -0.0586
     12 C           3.3183   -0.5285   -6.2036 C.ar    1  LIG1       -0.0430
     13 C           3.4706    0.6718   -5.5170 C.ar    1  LIG1        0.0456
     14 C           2.8917    0.9096   -4.2633 C.ar    1  LIG1       -0.0110
     15 C           3.0269    2.2340   -3.5754 C.3     1  LIG1       -0.0366
     16 O          -0.5508    0.0733    1.2285 O.3     1  LIG1       -0.4771
     17 O          -0.7179   -0.0661   -0.9920 O.2     1  LIG1       -0.2451
     18 CL          4.4149    1.9288   -6.2730 Cl      1  LIG1       -0.0832
     19 H           1.5833    0.0245    2.1394 H       1  LIG1        0.0626
     20 H           4.0629   -0.0356    2.2183 H       1  LIG1        0.0618
     21 H           5.3382   -0.1286    0.0732 H       1  LIG1        0.0618
     22 H           4.1670   -0.1363   -2.0805 H       1  LIG1        0.0636
     23 H           1.4395   -2.1600   -3.8918 H       1  LIG1        0.0636
     24 H           2.4428   -2.4908   -6.1509 H       1  LIG1        0.0619
     25 H           3.7823   -0.6539   -7.1768 H       1  LIG1        0.0632
     26 H           4.0494    2.3929   -3.2105 H       1  LIG1        0.0279
     27 H           2.8053    3.0537   -4.2667 H       1  LIG1        0.0279
     28 H           2.3469    2.2982   -2.7240 H       1  LIG1        0.0279
     29 H           0.5298   -0.1152   -2.3720 H       1  LIG1        0.1522
     30 H          -1.5126    0.0562    1.0908 H       1  LIG1        0.2954
@<TRIPOS>BOND
     1    25    12    1
     2    18    13    1
     3    12    11   ar
     4    12    13   ar
     5    24    11    1
     6    11    10   ar
     7    13    14   ar
     8    10    23    1
     9    10     9   ar
    10    27    15    1
    11    14     9   ar
    12    14    15    1
    13     9     8    1
    14    15    26    1
    15    15    28    1
    16     8    29    1
    17     8     7    1
    18    22     6    1
    19     7     6   ar
    20     7     2   ar
    21     6     5   ar
    22    17     1    2
    23     2     1    1
    24     2     3   ar
    25     1    16    1
    26     5    21    1
    27     5     4   ar
    28    30    16    1
    29     3     4   ar
    30     3    19    1
    31     4    20    1
