@<TRIPOS>MOLECULE
zmat95.com
 27 28 0 0 0
SMALL
GASTEIGER
Energy = 0

@<TRIPOS>ATOM
      1 C           0.0000    0.0000    0.0000 C.2     1  LIG1        0.3386
      2 C           1.4610    0.0000    0.0000 C.ar    1  LIG1        0.0799
      3 O          -0.5529    0.0000   -1.2311 O.3     1  LIG1       -0.4771
      4 O          -0.7186    0.0006    0.9943 O.2     1  LIG1       -0.2451
      5 C           2.1601    0.0419   -1.2195 C.ar    1  LIG1       -0.0460
      6 C           2.1856   -0.0372    1.2278 C.ar    1  LIG1        0.0454
      7 H          -1.5141    0.0041   -1.0896 H       1  LIG1        0.2954
      8 C           3.5413    0.0538   -1.2632 C.ar    1  LIG1       -0.0609
      9 C           3.5967   -0.0189    1.1612 C.ar    1  LIG1       -0.0397
     10 N           1.5410   -0.0968    2.4279 N.pl3   1  LIG1       -0.3138
     11 H           1.5836    0.0676   -2.1385 H       1  LIG1        0.0626
     12 C           4.2511    0.0253   -0.0556 C.ar    1  LIG1       -0.0600
     13 C           2.1896   -0.0932    3.6902 C.ar    1  LIG1        0.0313
     14 H           4.0641    0.0876   -2.2142 H       1  LIG1        0.0618
     15 H           4.1659   -0.0376    2.0853 H       1  LIG1        0.0636
     16 H           0.5260   -0.0386    2.3852 H       1  LIG1        0.1522
     17 C           2.3582    1.1025    4.3921 C.ar    1  LIG1       -0.0405
     18 C           2.6531   -1.2901    4.2415 C.ar    1  LIG1       -0.0405
     19 H           5.3387    0.0397   -0.0667 H       1  LIG1        0.0618
     20 C           2.9742    1.0977    5.6423 C.ar    1  LIG1       -0.0600
     21 C           3.2755   -1.2913    5.4877 C.ar    1  LIG1       -0.0600
     22 H           2.0014    2.0293    3.9500 H       1  LIG1        0.0636
     23 H           2.5155   -2.2135    3.6850 H       1  LIG1        0.0636
     24 C           3.4353   -0.0978    6.1907 C.ar    1  LIG1       -0.0616
     25 H           3.0968    2.0307    6.1866 H       1  LIG1        0.0618
     26 H           3.6308   -2.2267    5.9126 H       1  LIG1        0.0618
     27 H           3.9171   -0.0999    7.1651 H       1  LIG1        0.0618
@<TRIPOS>BOND
     1    14     8    1
     2    11     5    1
     3     8     5   ar
     4     8    12   ar
     5     3     7    1
     6     3     1    1
     7     5     2   ar
     8    19    12    1
     9    12     9   ar
    10     2     1    1
    11     2     6   ar
    12     1     4    2
    13     9     6   ar
    14     9    15    1
    15     6    10    1
    16    16    10    1
    17    10    13    1
    18    23    18    1
    19    13    18   ar
    20    13    17   ar
    21    22    17    1
    22    18    21   ar
    23    17    20   ar
    24    21    26    1
    25    21    24   ar
    26    20    25    1
    27    20    24   ar
    28    24    27    1
