@<TRIPOS>MOLECULE
zmat0.com
 27 28 0 0 0
SMALL
GASTEIGER
Energy = 0

@<TRIPOS>ATOM
      1 C           0.0000    0.0000    0.0000 C.2     1  LIG1        0.3386
      2 C           1.4676    0.0000    0.0000 C.ar    1  LIG1        0.0799
      3 O          -0.5465    0.0000   -1.2314 O.3     1  LIG1       -0.4771
      4 O          -0.7183   -0.0052    0.9922 O.2     1  LIG1       -0.2451
      5 C           2.1513   -0.1548   -1.2177 C.ar    1  LIG1       -0.0460
      6 C           2.2044    0.1416    1.2112 C.ar    1  LIG1        0.0454
      7 H          -1.5090   -0.0144   -1.0970 H       1  LIG1        0.2954
      8 C           3.5329   -0.1882   -1.2734 C.ar    1  LIG1       -0.0609
      9 C           3.6096    0.0615    1.1348 C.ar    1  LIG1       -0.0397
     10 N           1.5544    0.2638    2.4186 N.pl3   1  LIG1       -0.3138
     11 H           1.5662   -0.2535   -2.1258 H       1  LIG1        0.0626
     12 C           4.2554   -0.0927   -0.0798 C.ar    1  LIG1       -0.0600
     13 C           1.9116    1.0192    3.5423 C.ar    1  LIG1        0.0313
     14 H           4.0434   -0.3084   -2.2241 H       1  LIG1        0.0618
     15 H           4.1873    0.0687    2.0520 H       1  LIG1        0.0636
     16 H           0.5517    0.1084    2.3313 H       1  LIG1        0.1522
     17 C           3.0534    1.8258    3.6403 C.ar    1  LIG1       -0.0405
     18 C           1.0497    0.9420    4.6495 C.ar    1  LIG1       -0.0405
     19 H           5.3407   -0.1612   -0.0946 H       1  LIG1        0.0618
     20 C           3.3136    2.5302    4.8144 C.ar    1  LIG1       -0.0600
     21 C           1.3183    1.6505    5.8123 C.ar    1  LIG1       -0.0600
     22 H           3.7165    1.9524    2.7926 H       1  LIG1        0.0636
     23 H           0.1639    0.3132    4.5869 H       1  LIG1        0.0636
     24 C           2.4593    2.4476    5.9096 C.ar    1  LIG1       -0.0616
     25 H           4.1995    3.1593    4.8620 H       1  LIG1        0.0618
     26 H           0.6314    1.5738    6.6515 H       1  LIG1        0.0618
     27 H           2.6738    2.9977    6.8214 H       1  LIG1        0.0618
@<TRIPOS>BOND
     1    14     8    1
     2    11     5    1
     3     8     5   ar
     4     8    12   ar
     5     3     7    1
     6     3     1    1
     7     5     2   ar
     8    19    12    1
     9    12     9   ar
    10     2     1    1
    11     2     6   ar
    12     1     4    2
    13     9     6   ar
    14     9    15    1
    15     6    10    1
    16    16    10    1
    17    10    13    1
    18    22    17    1
    19    13    17   ar
    20    13    18   ar
    21    17    20   ar
    22    23    18    1
    23    18    21   ar
    24    20    25    1
    25    20    24   ar
    26    21    24   ar
    27    21    26    1
    28    24    27    1
