@<TRIPOS>MOLECULE
zmat65.com
 27 28 0 0 0
SMALL
GASTEIGER
Energy = 0

@<TRIPOS>ATOM
      1 C           0.0000    0.0000    0.0000 C.2     1  LIG1        0.3386
      2 C           1.4623    0.0000    0.0000 C.ar    1  LIG1        0.0799
      3 O          -0.5517    0.0000   -1.2310 O.3     1  LIG1       -0.4771
      4 O          -0.7184   -0.0056    0.9940 O.2     1  LIG1       -0.2451
      5 C           2.1564   -0.0845   -1.2199 C.ar    1  LIG1       -0.0460
      6 C           2.1905    0.0637    1.2246 C.ar    1  LIG1        0.0454
      7 H          -1.5132   -0.0077   -1.0909 H       1  LIG1        0.2954
      8 C           3.5372   -0.1182   -1.2674 C.ar    1  LIG1       -0.0609
      9 C           3.5996    0.0098    1.1544 C.ar    1  LIG1       -0.0397
     10 N           1.5388    0.1726    2.4212 N.pl3   1  LIG1       -0.3138
     11 H           1.5766   -0.1284   -2.1360 H       1  LIG1        0.0626
     12 C           4.2501   -0.0783   -0.0624 C.ar    1  LIG1       -0.0600
     13 C           2.1442    0.2221    3.6948 C.ar    1  LIG1        0.0313
     14 H           4.0563   -0.1841   -2.2187 H       1  LIG1        0.0618
     15 H           4.1740    0.0255    2.0748 H       1  LIG1        0.0636
     16 H           0.5306    0.0444    2.3704 H       1  LIG1        0.1522
     17 C           2.9650    1.2963    4.0561 C.ar    1  LIG1       -0.0405
     18 C           1.8563   -0.7687    4.6376 C.ar    1  LIG1       -0.0405
     19 H           5.3367   -0.1232   -0.0742 H       1  LIG1        0.0618
     20 C           3.5142    1.3579    5.3332 C.ar    1  LIG1       -0.0600
     21 C           2.3906   -0.6906    5.9220 C.ar    1  LIG1       -0.0600
     22 H           3.1585    2.0830    3.3314 H       1  LIG1        0.0636
     23 H           1.2150   -1.5997    4.3542 H       1  LIG1        0.0636
     24 C           3.2277    0.3668    6.2719 C.ar    1  LIG1       -0.0616
     25 H           4.1529    2.1955    5.6026 H       1  LIG1        0.0618
     26 H           2.1574   -1.4654    6.6480 H       1  LIG1        0.0618
     27 H           3.6494    0.4228    7.2720 H       1  LIG1        0.0618
@<TRIPOS>BOND
     1    14     8    1
     2    11     5    1
     3     8     5   ar
     4     8    12   ar
     5     3     7    1
     6     3     1    1
     7     5     2   ar
     8    19    12    1
     9    12     9   ar
    10     2     1    1
    11     2     6   ar
    12     1     4    2
    13     9     6   ar
    14     9    15    1
    15     6    10    1
    16    16    10    1
    17    10    13    1
    18    22    17    1
    19    13    17   ar
    20    13    18   ar
    21    17    20   ar
    22    23    18    1
    23    18    21   ar
    24    20    25    1
    25    20    24   ar
    26    21    24   ar
    27    21    26    1
    28    24    27    1
