@<TRIPOS>MOLECULE
zmat55.com
 27 28 0 0 0
SMALL
GASTEIGER
Energy = 0

@<TRIPOS>ATOM
      1 C           0.0000    0.0000    0.0000 C.2     1  LIG1        0.3386
      2 C           1.4628    0.0000    0.0000 C.ar    1  LIG1        0.0799
      3 O          -0.5520    0.0000   -1.2306 O.3     1  LIG1       -0.4771
      4 O          -0.7189   -0.0050    0.9936 O.2     1  LIG1       -0.2451
      5 C           2.1559   -0.0977   -1.2195 C.ar    1  LIG1       -0.0460
      6 C           2.1922    0.0788    1.2234 C.ar    1  LIG1        0.0454
      7 H          -1.5135   -0.0101   -1.0906 H       1  LIG1        0.2954
      8 C           3.5366   -0.1308   -1.2681 C.ar    1  LIG1       -0.0609
      9 C           3.6013    0.0235    1.1520 C.ar    1  LIG1       -0.0397
     10 N           1.5378    0.1876    2.4187 N.pl3   1  LIG1       -0.3138
     11 H           1.5753   -0.1525   -2.1345 H       1  LIG1        0.0626
     12 C           4.2505   -0.0783   -0.0643 C.ar    1  LIG1       -0.0600
     13 C           2.1177    0.3518    3.6903 C.ar    1  LIG1        0.0313
     14 H           4.0548   -0.2073   -2.2191 H       1  LIG1        0.0618
     15 H           4.1770    0.0429    2.0712 H       1  LIG1        0.0636
     16 H           0.5301    0.0566    2.3646 H       1  LIG1        0.1522
     17 C           3.0054    1.4013    3.9572 C.ar    1  LIG1       -0.0405
     18 C           1.7324   -0.4987    4.7318 C.ar    1  LIG1       -0.0405
     19 H           5.3370   -0.1263   -0.0763 H       1  LIG1        0.0618
     20 C           3.5208    1.5724    5.2383 C.ar    1  LIG1       -0.0600
     21 C           2.2342   -0.3080    6.0168 C.ar    1  LIG1       -0.0600
     22 H           3.2742    2.0887    3.1596 H       1  LIG1        0.0636
     23 H           1.0409   -1.3117    4.5237 H       1  LIG1        0.0636
     24 C           3.1376    0.7212    6.2745 C.ar    1  LIG1       -0.0616
     25 H           4.2105    2.3902    5.4320 H       1  LIG1        0.0618
     26 H           1.9240   -0.9753    6.8170 H       1  LIG1        0.0618
     27 H           3.5350    0.8638    7.2758 H       1  LIG1        0.0618
@<TRIPOS>BOND
     1    14     8    1
     2    11     5    1
     3     8     5   ar
     4     8    12   ar
     5     3     7    1
     6     3     1    1
     7     5     2   ar
     8    19    12    1
     9    12     9   ar
    10     2     1    1
    11     2     6   ar
    12     1     4    2
    13     9     6   ar
    14     9    15    1
    15     6    10    1
    16    16    10    1
    17    10    13    1
    18    22    17    1
    19    13    17   ar
    20    13    18   ar
    21    17    20   ar
    22    23    18    1
    23    18    21   ar
    24    20    25    1
    25    20    24   ar
    26    21    24   ar
    27    21    26    1
    28    24    27    1
