@<TRIPOS>MOLECULE
zmat50.com
 27 28 0 0 0
SMALL
GASTEIGER
Energy = 0

@<TRIPOS>ATOM
      1 C           0.0000    0.0000    0.0000 C.2     1  LIG1        0.3386
      2 C           1.4630    0.0000    0.0000 C.ar    1  LIG1        0.0799
      3 O          -0.5514    0.0000   -1.2307 O.3     1  LIG1       -0.4771
      4 O          -0.7189   -0.0048    0.9936 O.2     1  LIG1       -0.2451
      5 C           2.1554   -0.0993   -1.2196 C.ar    1  LIG1       -0.0460
      6 C           2.1927    0.0807    1.2231 C.ar    1  LIG1        0.0454
      7 H          -1.5130   -0.0100   -1.0911 H       1  LIG1        0.2954
      8 C           3.5362   -0.1321   -1.2686 C.ar    1  LIG1       -0.0609
      9 C           3.6016    0.0242    1.1512 C.ar    1  LIG1       -0.0397
     10 N           1.5371    0.1839    2.4183 N.pl3   1  LIG1       -0.3138
     11 H           1.5746   -0.1554   -2.1343 H       1  LIG1        0.0626
     12 C           4.2505   -0.0792   -0.0652 C.ar    1  LIG1       -0.0600
     13 C           2.1017    0.4023    3.6869 C.ar    1  LIG1        0.0313
     14 H           4.0540   -0.2098   -2.2197 H       1  LIG1        0.0618
     15 H           4.1777    0.0404    2.0703 H       1  LIG1        0.0636
     16 H           0.5292    0.0556    2.3608 H       1  LIG1        0.1522
     17 C           3.0179    1.4359    3.9182 C.ar    1  LIG1       -0.0405
     18 C           1.6718   -0.3816    4.7633 C.ar    1  LIG1       -0.0405
     19 H           5.3369   -0.1292   -0.0773 H       1  LIG1        0.0618
     20 C           3.5147    1.6560    5.1992 C.ar    1  LIG1       -0.0600
     21 C           2.1563   -0.1414    6.0462 C.ar    1  LIG1       -0.0600
     22 H           3.3221    2.0759    3.0946 H       1  LIG1        0.0636
     23 H           0.9590   -1.1830    4.5836 H       1  LIG1        0.0636
     24 C           3.0875    0.8710    6.2697 C.ar    1  LIG1       -0.0616
     25 H           4.2260    2.4615    5.3644 H       1  LIG1        0.0618
     26 H           1.8110   -0.7577    6.8725 H       1  LIG1        0.0618
     27 H           3.4719    1.0519    7.2698 H       1  LIG1        0.0618
@<TRIPOS>BOND
     1    14     8    1
     2    11     5    1
     3     8     5   ar
     4     8    12   ar
     5     3     7    1
     6     3     1    1
     7     5     2   ar
     8    19    12    1
     9    12     9   ar
    10     2     1    1
    11     2     6   ar
    12     1     4    2
    13     9     6   ar
    14     9    15    1
    15     6    10    1
    16    16    10    1
    17    10    13    1
    18    22    17    1
    19    13    17   ar
    20    13    18   ar
    21    17    20   ar
    22    23    18    1
    23    18    21   ar
    24    20    25    1
    25    20    24   ar
    26    21    24   ar
    27    21    26    1
    28    24    27    1
