@<TRIPOS>MOLECULE
zmat125.com
 27 28 0 0 0
SMALL
GASTEIGER
Energy = 0

@<TRIPOS>ATOM
      1 C           0.0000    0.0000    0.0000 C.2     1  LIG1        0.3386
      2 C           1.4626    0.0000    0.0000 C.ar    1  LIG1        0.0799
      3 O          -0.5516    0.0000   -1.2308 O.3     1  LIG1       -0.4771
      4 O          -0.7187    0.0044    0.9938 O.2     1  LIG1       -0.2451
      5 C           2.1555    0.0968   -1.2197 C.ar    1  LIG1       -0.0460
      6 C           2.1919   -0.0774    1.2234 C.ar    1  LIG1        0.0454
      7 H          -1.5131    0.0093   -1.0908 H       1  LIG1        0.2954
      8 C           3.5363    0.1306   -1.2683 C.ar    1  LIG1       -0.0609
      9 C           3.6010   -0.0222    1.1519 C.ar    1  LIG1       -0.0397
     10 N           1.5379   -0.1885    2.4187 N.pl3   1  LIG1       -0.3138
     11 H           1.5748    0.1504   -2.1346 H       1  LIG1        0.0626
     12 C           4.2501    0.0789   -0.0645 C.ar    1  LIG1       -0.0600
     13 C           2.1255   -0.3259    3.6913 C.ar    1  LIG1        0.0313
     14 H           4.0544    0.2065   -2.2194 H       1  LIG1        0.0618
     15 H           4.1767   -0.0429    2.0711 H       1  LIG1        0.0636
     16 H           0.5300   -0.0588    2.3653 H       1  LIG1        0.1522
     17 C           1.7923    0.5795    4.7037 C.ar    1  LIG1       -0.0405
     18 C           3.0037   -1.3782    3.9751 C.ar    1  LIG1       -0.0405
     19 H           5.3366    0.1264   -0.0766 H       1  LIG1        0.0618
     20 C           2.3222    0.4284    5.9828 C.ar    1  LIG1       -0.0600
     21 C           3.5478   -1.5105    5.2491 C.ar    1  LIG1       -0.0600
     22 H           1.1172    1.4015    4.4784 H       1  LIG1        0.0636
     23 H           3.2415   -2.0982    3.1965 H       1  LIG1        0.0636
     24 C           3.2081   -0.6111    6.2593 C.ar    1  LIG1       -0.0616
     25 H           2.0503    1.1357    6.7623 H       1  LIG1        0.0618
     26 H           4.2277   -2.3328    5.4577 H       1  LIG1        0.0618
     27 H           3.6280   -0.7227    7.2554 H       1  LIG1        0.0618
@<TRIPOS>BOND
     1    14     8    1
     2    11     5    1
     3     8     5   ar
     4     8    12   ar
     5     3     7    1
     6     3     1    1
     7     5     2   ar
     8    19    12    1
     9    12     9   ar
    10     2     1    1
    11     2     6   ar
    12     1     4    2
    13     9     6   ar
    14     9    15    1
    15     6    10    1
    16    16    10    1
    17    10    13    1
    18    23    18    1
    19    13    18   ar
    20    13    17   ar
    21    18    21   ar
    22    22    17    1
    23    17    20   ar
    24    21    26    1
    25    21    24   ar
    26    20    24   ar
    27    20    25    1
    28    24    27    1
