@<TRIPOS>MOLECULE
zmat105.com
 27 28 0 0 0
SMALL
GASTEIGER
Energy = 0

@<TRIPOS>ATOM
      1 C           0.0000    0.0000    0.0000 C.2     1  LIG1        0.3386
      2 C           1.4620    0.0000    0.0000 C.ar    1  LIG1        0.0799
      3 O          -0.5518    0.0000   -1.2312 O.3     1  LIG1       -0.4771
      4 O          -0.7195    0.0104    0.9933 O.2     1  LIG1       -0.2451
      5 C           2.1579    0.0347   -1.2214 C.ar    1  LIG1       -0.0460
      6 C           2.1889   -0.0046    1.2271 C.ar    1  LIG1        0.0454
      7 H          -1.5133    0.0056   -1.0907 H       1  LIG1        0.2954
      8 C           3.5386    0.0747   -1.2680 C.ar    1  LIG1       -0.0609
      9 C           3.5978    0.0557    1.1571 C.ar    1  LIG1       -0.0397
     10 N           1.5399   -0.0733    2.4280 N.pl3   1  LIG1       -0.3138
     11 H           1.5797    0.0348   -2.1395 H       1  LIG1        0.0626
     12 C           4.2498    0.0926   -0.0615 C.ar    1  LIG1       -0.0600
     13 C           2.1571    0.0692    3.6944 C.ar    1  LIG1        0.0313
     14 H           4.0590    0.1009   -2.2205 H       1  LIG1        0.0618
     15 H           4.1699    0.0781    2.0790 H       1  LIG1        0.0636
     16 H           0.5283    0.0228    2.3699 H       1  LIG1        0.1522
     17 C           1.9940    1.2508    4.4219 C.ar    1  LIG1       -0.0405
     18 C           2.9166   -0.9731    4.2334 C.ar    1  LIG1       -0.0405
     19 H           5.3364    0.1400   -0.0741 H       1  LIG1        0.0618
     20 C           2.5702    1.3810    5.6840 C.ar    1  LIG1       -0.0600
     21 C           3.5074   -0.8318    5.4864 C.ar    1  LIG1       -0.0600
     22 H           1.4125    2.0621    3.9910 H       1  LIG1        0.0636
     23 H           3.0285   -1.8931    3.6654 H       1  LIG1        0.0636
     24 C           3.3324    0.3433    6.2169 C.ar    1  LIG1       -0.0616
     25 H           2.4310    2.3006    6.2468 H       1  LIG1        0.0618
     26 H           4.0953   -1.6478    5.8990 H       1  LIG1        0.0618
     27 H           3.7870    0.4481    7.1986 H       1  LIG1        0.0618
@<TRIPOS>BOND
     1    14     8    1
     2    11     5    1
     3     8     5   ar
     4     8    12   ar
     5     3     7    1
     6     3     1    1
     7     5     2   ar
     8    19    12    1
     9    12     9   ar
    10     2     1    1
    11     2     6   ar
    12     1     4    2
    13     9     6   ar
    14     9    15    1
    15     6    10    1
    16    16    10    1
    17    10    13    1
    18    23    18    1
    19    13    18   ar
    20    13    17   ar
    21    22    17    1
    22    18    21   ar
    23    17    20   ar
    24    21    26    1
    25    21    24   ar
    26    20    24   ar
    27    20    25    1
    28    24    27    1
