@<TRIPOS>MOLECULE
zmat100.com
 27 28 0 0 0
SMALL
GASTEIGER
Energy = 0

@<TRIPOS>ATOM
      1 C           0.0000    0.0000    0.0000 C.2     1  LIG1        0.3386
      2 C           1.4617    0.0000    0.0000 C.ar    1  LIG1        0.0799
      3 O          -0.5518    0.0000   -1.2313 O.3     1  LIG1       -0.4771
      4 O          -0.7195    0.0099    0.9934 O.2     1  LIG1       -0.2451
      5 C           2.1590    0.0251   -1.2210 C.ar    1  LIG1       -0.0460
      6 C           2.1875    0.0013    1.2276 C.ar    1  LIG1        0.0454
      7 H          -1.5133    0.0048   -1.0906 H       1  LIG1        0.2954
      8 C           3.5398    0.0599   -1.2663 C.ar    1  LIG1       -0.0609
      9 C           3.5971    0.0534    1.1590 C.ar    1  LIG1       -0.0397
     10 N           1.5402   -0.0557    2.4292 N.pl3   1  LIG1       -0.3138
     11 H           1.5817    0.0212   -2.1398 H       1  LIG1        0.0626
     12 C           4.2502    0.0801   -0.0592 C.ar    1  LIG1       -0.0600
     13 C           2.1672    0.1016    3.6911 C.ar    1  LIG1        0.0313
     14 H           4.0613    0.0787   -2.2184 H       1  LIG1        0.0618
     15 H           4.1677    0.0754    2.0820 H       1  LIG1        0.0636
     16 H           0.5275    0.0294    2.3741 H       1  LIG1        0.1522
     17 C           2.0968    1.3258    4.3605 C.ar    1  LIG1       -0.0405
     18 C           2.8452   -0.9689    4.2797 C.ar    1  LIG1       -0.0405
     19 H           5.3371    0.1204   -0.0713 H       1  LIG1        0.0618
     20 C           2.6849    1.4719    5.6155 C.ar    1  LIG1       -0.0600
     21 C           3.4461   -0.8149    5.5267 C.ar    1  LIG1       -0.0600
     22 H           1.5776    2.1570    3.8900 H       1  LIG1        0.0636
     23 H           2.8871   -1.9192    3.7538 H       1  LIG1        0.0636
     24 C           3.3640    0.4041    6.1991 C.ar    1  LIG1       -0.0616
     25 H           2.6187    2.4253    6.1336 H       1  LIG1        0.0618
     26 H           3.9701   -1.6529    5.9793 H       1  LIG1        0.0618
     27 H           3.8267    0.5201    7.1758 H       1  LIG1        0.0618
@<TRIPOS>BOND
     1    14     8    1
     2    11     5    1
     3     8     5   ar
     4     8    12   ar
     5     3     7    1
     6     3     1    1
     7     5     2   ar
     8    19    12    1
     9    12     9   ar
    10     2     1    1
    11     2     6   ar
    12     1     4    2
    13     9     6   ar
    14     9    15    1
    15     6    10    1
    16    16    10    1
    17    10    13    1
    18    13    18   ar
    19    13    17   ar
    20    23    18    1
    21    22    17    1
    22    18    21   ar
    23    17    20   ar
    24    21    26    1
    25    21    24   ar
    26    20    25    1
    27    20    24   ar
    28    24    27    1
