@<TRIPOS>MOLECULE
zmat140.com
 27 28 0 0 0
SMALL
GASTEIGER
Energy = 0

@<TRIPOS>ATOM
      1 C           0.0000    0.0000    0.0000 C.2     1  LIG1        0.3386
      2 C           1.4634    0.0000    0.0000 C.ar    1  LIG1        0.0799
      3 O          -0.5508    0.0000   -1.2308 O.3     1  LIG1       -0.4771
      4 O          -0.7192    0.0049    0.9933 O.2     1  LIG1       -0.2451
      5 C           2.1547    0.1061   -1.2196 C.ar    1  LIG1       -0.0460
      6 C           2.1940   -0.0867    1.2222 C.ar    1  LIG1        0.0454
      7 H          -1.5124    0.0106   -1.0918 H       1  LIG1        0.2954
      8 C           3.5354    0.1397   -1.2694 C.ar    1  LIG1       -0.0609
      9 C           3.6027   -0.0269    1.1495 C.ar    1  LIG1       -0.0397
     10 N           1.5374   -0.1877    2.4177 N.pl3   1  LIG1       -0.3138
     11 H           1.5732    0.1666   -2.1336 H       1  LIG1        0.0626
     12 C           4.2506    0.0830   -0.0669 C.ar    1  LIG1       -0.0600
     13 C           2.0793   -0.4763    3.6800 C.ar    1  LIG1        0.0313
     14 H           4.0524    0.2223   -2.2206 H       1  LIG1        0.0618
     15 H           4.1795   -0.0413    2.0678 H       1  LIG1        0.0636
     16 H           0.5295   -0.0596    2.3557 H       1  LIG1        0.1522
     17 C           1.5930    0.2210    4.7927 C.ar    1  LIG1       -0.0405
     18 C           3.0359   -1.4814    3.8712 C.ar    1  LIG1       -0.0405
     19 H           5.3368    0.1366   -0.0793 H       1  LIG1        0.0618
     20 C           2.0563   -0.0796    6.0700 C.ar    1  LIG1       -0.0600
     21 C           3.5093   -1.7615    5.1496 C.ar    1  LIG1       -0.0600
     22 H           0.8521    1.0032    4.6448 H       1  LIG1        0.0636
     23 H           3.3873   -2.0586    3.0206 H       1  LIG1        0.0636
     24 C           3.0244   -1.0650    6.2557 C.ar    1  LIG1       -0.0616
     25 H           1.6656    0.4695    6.9230 H       1  LIG1        0.0618
     26 H           4.2506   -2.5458    5.2824 H       1  LIG1        0.0618
     27 H           3.3928   -1.2924    7.2523 H       1  LIG1        0.0618
@<TRIPOS>BOND
     1    14     8    1
     2    11     5    1
     3     8     5   ar
     4     8    12   ar
     5     3     7    1
     6     3     1    1
     7     5     2   ar
     8    19    12    1
     9    12     9   ar
    10     2     1    1
    11     2     6   ar
    12     1     4    2
    13     9     6   ar
    14     9    15    1
    15     6    10    1
    16    16    10    1
    17    10    13    1
    18    23    18    1
    19    13    18   ar
    20    13    17   ar
    21    18    21   ar
    22    22    17    1
    23    17    20   ar
    24    21    26    1
    25    21    24   ar
    26    20    24   ar
    27    20    25    1
    28    24    27    1
