@<TRIPOS>MOLECULE
zmat130.com
 27 28 0 0 0
SMALL
GASTEIGER
Energy = 0

@<TRIPOS>ATOM
      1 C           0.0000    0.0000    0.0000 C.2     1  LIG1        0.3386
      2 C           1.4628    0.0000    0.0000 C.ar    1  LIG1        0.0799
      3 O          -0.5514    0.0000   -1.2308 O.3     1  LIG1       -0.4771
      4 O          -0.7188    0.0044    0.9938 O.2     1  LIG1       -0.2451
      5 C           2.1552    0.0993   -1.2196 C.ar    1  LIG1       -0.0460
      6 C           2.1925   -0.0810    1.2231 C.ar    1  LIG1        0.0454
      7 H          -1.5129    0.0096   -1.0911 H       1  LIG1        0.2954
      8 C           3.5360    0.1320   -1.2687 C.ar    1  LIG1       -0.0609
      9 C           3.6014   -0.0255    1.1512 C.ar    1  LIG1       -0.0397
     10 N           1.5374   -0.1878    2.4183 N.pl3   1  LIG1       -0.3138
     11 H           1.5743    0.1554   -2.1343 H       1  LIG1        0.0626
     12 C           4.2502    0.0781   -0.0654 C.ar    1  LIG1       -0.0600
     13 C           2.1113   -0.3773    3.6885 C.ar    1  LIG1        0.0313
     14 H           4.0538    0.2097   -2.2198 H       1  LIG1        0.0618
     15 H           4.1777   -0.0449    2.0701 H       1  LIG1        0.0636
     16 H           0.5295   -0.0587    2.3624 H       1  LIG1        0.1522
     17 C           1.7296    0.4613    4.7412 C.ar    1  LIG1       -0.0405
     18 C           3.0154   -1.4173    3.9361 C.ar    1  LIG1       -0.0405
     19 H           5.3367    0.1266   -0.0775 H       1  LIG1        0.0618
     20 C           2.2391    0.2588    6.0211 C.ar    1  LIG1       -0.0600
     21 C           3.5381   -1.6000    5.2127 C.ar    1  LIG1       -0.0600
     22 H           1.0332    1.2733    4.5460 H       1  LIG1        0.0636
     23 H           3.2890   -2.0909    3.1285 H       1  LIG1        0.0636
     24 C           3.1521   -0.7661    6.2617 C.ar    1  LIG1       -0.0616
     25 H           1.9296    0.9152    6.8305 H       1  LIG1        0.0618
     26 H           4.2381   -2.4125    5.3919 H       1  LIG1        0.0618
     27 H           3.5564   -0.9175    7.2590 H       1  LIG1        0.0618
@<TRIPOS>BOND
     1    14     8    1
     2    11     5    1
     3     8     5   ar
     4     8    12   ar
     5     3     7    1
     6     3     1    1
     7     5     2   ar
     8    19    12    1
     9    12     9   ar
    10     2     1    1
    11     2     6   ar
    12     1     4    2
    13     9     6   ar
    14     9    15    1
    15     6    10    1
    16    16    10    1
    17    10    13    1
    18    23    18    1
    19    13    18   ar
    20    13    17   ar
    21    18    21   ar
    22    22    17    1
    23    17    20   ar
    24    21    26    1
    25    21    24   ar
    26    20    24   ar
    27    20    25    1
    28    24    27    1
