@<TRIPOS>MOLECULE
zmat35.com
 27 28 0 0 0
SMALL
GASTEIGER
Energy = 0

@<TRIPOS>ATOM
      1 C           0.0000    0.0000    0.0000 C.2     1  LIG1        0.3386
      2 C           1.4639    0.0000    0.0000 C.ar    1  LIG1        0.0799
      3 O          -0.5501    0.0000   -1.2309 O.3     1  LIG1       -0.4771
      4 O          -0.7192   -0.0055    0.9931 O.2     1  LIG1       -0.2451
      5 C           2.1541   -0.1053   -1.2202 C.ar    1  LIG1       -0.0460
      6 C           2.1953    0.0863    1.2215 C.ar    1  LIG1        0.0454
      7 H          -1.5119   -0.0104   -1.0926 H       1  LIG1        0.2954
      8 C           3.5348   -0.1384   -1.2711 C.ar    1  LIG1       -0.0609
      9 C           3.6036    0.0233    1.1477 C.ar    1  LIG1       -0.0397
     10 N           1.5384    0.1757    2.4188 N.pl3   1  LIG1       -0.3138
     11 H           1.5720   -0.1652   -2.1338 H       1  LIG1        0.0626
     12 C           4.2511   -0.0851   -0.0692 C.ar    1  LIG1       -0.0600
     13 C           2.0488    0.5507    3.6694 C.ar    1  LIG1        0.0313
     14 H           4.0509   -0.2199   -2.2228 H       1  LIG1        0.0618
     15 H           4.1808    0.0282    2.0658 H       1  LIG1        0.0636
     16 H           0.5302    0.0520    2.3496 H       1  LIG1        0.1522
     17 C           3.0452    1.5231    3.8249 C.ar    1  LIG1       -0.0405
     18 C           1.4830   -0.0295    4.8127 C.ar    1  LIG1       -0.0405
     19 H           5.3371   -0.1420   -0.0823 H       1  LIG1        0.0618
     20 C           3.4779    1.8827    5.0982 C.ar    1  LIG1       -0.0600
     21 C           1.9086    0.3497    6.0813 C.ar    1  LIG1       -0.0600
     22 H           3.4579    2.0201    2.9522 H       1  LIG1        0.0636
     23 H           0.7097   -0.7850    4.6948 H       1  LIG1        0.0636
     24 C           2.9167    1.3005    6.2333 C.ar    1  LIG1       -0.0616
     25 H           4.2502    2.6412    5.2009 H       1  LIG1        0.0618
     26 H           1.4558   -0.1109    6.9558 H       1  LIG1        0.0618
     27 H           3.2559    1.5893    7.2242 H       1  LIG1        0.0618
@<TRIPOS>BOND
     1    14     8    1
     2    11     5    1
     3     8     5   ar
     4     8    12   ar
     5     3     7    1
     6     3     1    1
     7     5     2   ar
     8    19    12    1
     9    12     9   ar
    10     2     1    1
    11     2     6   ar
    12     1     4    2
    13     9     6   ar
    14     9    15    1
    15     6    10    1
    16    16    10    1
    17    10    13    1
    18    22    17    1
    19    13    17   ar
    20    13    18   ar
    21    17    20   ar
    22    23    18    1
    23    18    21   ar
    24    20    25    1
    25    20    24   ar
    26    21    24   ar
    27    21    26    1
    28    24    27    1
