@<TRIPOS>MOLECULE
zmat75.com
 27 28 0 0 0
SMALL
GASTEIGER
Energy = 0

@<TRIPOS>ATOM
      1 C           0.0000    0.0000    0.0000 C.2     1  LIG1        0.3386
      2 C           1.4622    0.0000    0.0000 C.ar    1  LIG1        0.0799
      3 O          -0.5519    0.0000   -1.2311 O.3     1  LIG1       -0.4771
      4 O          -0.7192   -0.0104    0.9934 O.2     1  LIG1       -0.2451
      5 C           2.1578   -0.0408   -1.2214 C.ar    1  LIG1       -0.0460
      6 C           2.1893    0.0096    1.2268 C.ar    1  LIG1        0.0454
      7 H          -1.5133   -0.0062   -1.0905 H       1  LIG1        0.2954
      8 C           3.5384   -0.0825   -1.2681 C.ar    1  LIG1       -0.0609
      9 C           3.5980   -0.0533    1.1569 C.ar    1  LIG1       -0.0397
     10 N           1.5402    0.0854    2.4278 N.pl3   1  LIG1       -0.3138
     11 H           1.5795   -0.0447   -2.1394 H       1  LIG1        0.0626
     12 C           4.2498   -0.0964   -0.0616 C.ar    1  LIG1       -0.0600
     13 C           2.1547   -0.0463    3.6957 C.ar    1  LIG1        0.0313
     14 H           4.0586   -0.1135   -2.2205 H       1  LIG1        0.0618
     15 H           4.1702   -0.0739    2.0788 H       1  LIG1        0.0636
     16 H           0.5295   -0.0195    2.3700 H       1  LIG1        0.1522
     17 C           2.9263    0.9941    4.2219 C.ar    1  LIG1       -0.0405
     18 C           1.9306   -1.1925    4.4627 C.ar    1  LIG1       -0.0405
     19 H           5.3362   -0.1461   -0.0741 H       1  LIG1        0.0618
     20 C           3.4895    0.8748    5.4896 C.ar    1  LIG1       -0.0600
     21 C           2.4786   -1.2994    5.7394 C.ar    1  LIG1       -0.0600
     22 H           3.0717    1.8949    3.6311 H       1  LIG1        0.0636
     23 H           1.3272   -1.9971    4.0493 H       1  LIG1        0.0636
     24 C           3.2651   -0.2703    6.2533 C.ar    1  LIG1       -0.0616
     25 H           4.0907    1.6875    5.8894 H       1  LIG1        0.0618
     26 H           2.2952   -2.1934    6.3301 H       1  LIG1        0.0618
     27 H           3.6968   -0.3570    7.2470 H       1  LIG1        0.0618
@<TRIPOS>BOND
     1    14     8    1
     2    11     5    1
     3     8     5   ar
     4     8    12   ar
     5     3     7    1
     6     3     1    1
     7     5     2   ar
     8    19    12    1
     9    12     9   ar
    10     2     1    1
    11     2     6   ar
    12     1     4    2
    13     9     6   ar
    14     9    15    1
    15     6    10    1
    16    16    10    1
    17    10    13    1
    18    22    17    1
    19    13    17   ar
    20    13    18   ar
    21    23    18    1
    22    17    20   ar
    23    18    21   ar
    24    20    25    1
    25    20    24   ar
    26    21    24   ar
    27    21    26    1
    28    24    27    1
