@<TRIPOS>MOLECULE
zmat45.com
 27 28 0 0 0
SMALL
GASTEIGER
Energy = 0

@<TRIPOS>ATOM
      1 C           0.0000    0.0000    0.0000 C.2     1  LIG1        0.3386
      2 C           1.4633    0.0000    0.0000 C.ar    1  LIG1        0.0799
      3 O          -0.5512    0.0000   -1.2307 O.3     1  LIG1       -0.4771
      4 O          -0.7192   -0.0045    0.9934 O.2     1  LIG1       -0.2451
      5 C           2.1552   -0.1058   -1.2194 C.ar    1  LIG1       -0.0460
      6 C           2.1935    0.0896    1.2223 C.ar    1  LIG1        0.0454
      7 H          -1.5128   -0.0112   -1.0915 H       1  LIG1        0.2954
      8 C           3.5360   -0.1375   -1.2687 C.ar    1  LIG1       -0.0609
      9 C           3.6024    0.0326    1.1501 C.ar    1  LIG1       -0.0397
     10 N           1.5371    0.1927    2.4174 N.pl3   1  LIG1       -0.3138
     11 H           1.5741   -0.1678   -2.1334 H       1  LIG1        0.0626
     12 C           4.2508   -0.0777   -0.0660 C.ar    1  LIG1       -0.0600
     13 C           2.0848    0.4695    3.6805 C.ar    1  LIG1        0.0313
     14 H           4.0535   -0.2202   -2.2196 H       1  LIG1        0.0618
     15 H           4.1790    0.0509    2.0686 H       1  LIG1        0.0636
     16 H           0.5292    0.0644    2.3572 H       1  LIG1        0.1522
     17 C           3.0289    1.4857    3.8764 C.ar    1  LIG1       -0.0405
     18 C           1.6095   -0.2416    4.7885 C.ar    1  LIG1       -0.0405
     19 H           5.3372   -0.1282   -0.0782 H       1  LIG1        0.0618
     20 C           3.5057    1.7594    5.1547 C.ar    1  LIG1       -0.0600
     21 C           2.0755    0.0528    6.0665 C.ar    1  LIG1       -0.0600
     22 H           3.3693    2.0734    3.0284 H       1  LIG1        0.0636
     23 H           0.8760   -1.0301    4.6368 H       1  LIG1        0.0636
     24 C           3.0335    1.0469    6.2564 C.ar    1  LIG1       -0.0616
     25 H           4.2381    2.5512    5.2916 H       1  LIG1        0.0618
     26 H           1.6945   -0.5077    6.9165 H       1  LIG1        0.0618
     27 H           3.4037    1.2696    7.2534 H       1  LIG1        0.0618
@<TRIPOS>BOND
     1    14     8    1
     2    11     5    1
     3     8     5   ar
     4     8    12   ar
     5     3     7    1
     6     3     1    1
     7     5     2   ar
     8    19    12    1
     9    12     9   ar
    10     2     1    1
    11     2     6   ar
    12     1     4    2
    13     9     6   ar
    14     9    15    1
    15     6    10    1
    16    16    10    1
    17    10    13    1
    18    22    17    1
    19    13    17   ar
    20    13    18   ar
    21    17    20   ar
    22    23    18    1
    23    18    21   ar
    24    20    25    1
    25    20    24   ar
    26    21    24   ar
    27    21    26    1
    28    24    27    1
