@<TRIPOS>MOLECULE
zmat150.com
 27 28 0 0 0
SMALL
GASTEIGER
Energy = 0

@<TRIPOS>ATOM
      1 C           0.0000    0.0000    0.0000 C.2     1  LIG1        0.3386
      2 C           1.4641    0.0000    0.0000 C.ar    1  LIG1        0.0799
      3 O          -0.5500    0.0000   -1.2309 O.3     1  LIG1       -0.4771
      4 O          -0.7192    0.0061    0.9931 O.2     1  LIG1       -0.2451
      5 C           2.1541    0.1037   -1.2204 C.ar    1  LIG1       -0.0460
      6 C           2.1957   -0.0851    1.2214 C.ar    1  LIG1        0.0454
      7 H          -1.5119    0.0107   -1.0927 H       1  LIG1        0.2954
      8 C           3.5349    0.1363   -1.2716 C.ar    1  LIG1       -0.0609
      9 C           3.6038   -0.0220    1.1473 C.ar    1  LIG1       -0.0397
     10 N           1.5390   -0.1716    2.4192 N.pl3   1  LIG1       -0.3138
     11 H           1.5720    0.1627   -2.1340 H       1  LIG1        0.0626
     12 C           4.2514    0.0845   -0.0698 C.ar    1  LIG1       -0.0600
     13 C           2.0451   -0.5573    3.6680 C.ar    1  LIG1        0.0313
     14 H           4.0508    0.2164   -2.2235 H       1  LIG1        0.0618
     15 H           4.1811   -0.0247    2.0653 H       1  LIG1        0.0636
     16 H           0.5308   -0.0483    2.3491 H       1  LIG1        0.1522
     17 C           1.4612   -0.0004    4.8139 C.ar    1  LIG1       -0.0405
     18 C           3.0450   -1.5270    3.8204 C.ar    1  LIG1       -0.0405
     19 H           5.3374    0.1415   -0.0832 H       1  LIG1        0.0618
     20 C           1.8769   -0.3941    6.0812 C.ar    1  LIG1       -0.0600
     21 C           3.4673   -1.9013    5.0928 C.ar    1  LIG1       -0.0600
     22 H           0.6822    0.7497    4.6991 H       1  LIG1        0.0636
     23 H           3.4691   -2.0105    2.9455 H       1  LIG1        0.0636
     24 C           2.8910   -1.3391    6.2304 C.ar    1  LIG1       -0.0616
     25 H           1.4107    0.0499    6.9573 H       1  LIG1        0.0618
     26 H           4.2432   -2.6567    5.1926 H       1  LIG1        0.0618
     27 H           3.2222   -1.6394    7.2206 H       1  LIG1        0.0618
@<TRIPOS>BOND
     1    14     8    1
     2    11     5    1
     3     8     5   ar
     4     8    12   ar
     5     3     7    1
     6     3     1    1
     7     5     2   ar
     8    19    12    1
     9    12     9   ar
    10     2     1    1
    11     2     6   ar
    12     1     4    2
    13     9     6   ar
    14     9    15    1
    15     6    10    1
    16    16    10    1
    17    10    13    1
    18    23    18    1
    19    13    18   ar
    20    13    17   ar
    21    18    21   ar
    22    22    17    1
    23    17    20   ar
    24    21    26    1
    25    21    24   ar
    26    20    24   ar
    27    20    25    1
    28    24    27    1
