@<TRIPOS>MOLECULE
zmat60.com
 27 28 0 0 0
SMALL
GASTEIGER
Energy = 0

@<TRIPOS>ATOM
      1 C           0.0000    0.0000    0.0000 C.2     1  LIG1        0.3386
      2 C           1.4625    0.0000    0.0000 C.ar    1  LIG1        0.0799
      3 O          -0.5519    0.0000   -1.2307 O.3     1  LIG1       -0.4771
      4 O          -0.7187   -0.0047    0.9939 O.2     1  LIG1       -0.2451
      5 C           2.1560   -0.0947   -1.2195 C.ar    1  LIG1       -0.0460
      6 C           2.1913    0.0744    1.2238 C.ar    1  LIG1        0.0454
      7 H          -1.5134   -0.0096   -1.0905 H       1  LIG1        0.2954
      8 C           3.5368   -0.1293   -1.2674 C.ar    1  LIG1       -0.0609
      9 C           3.6003    0.0187    1.1531 C.ar    1  LIG1       -0.0397
     10 N           1.5381    0.1882    2.4192 N.pl3   1  LIG1       -0.3138
     11 H           1.5758   -0.1461   -2.1349 H       1  LIG1        0.0626
     12 C           4.2501   -0.0802   -0.0632 C.ar    1  LIG1       -0.0600
     13 C           2.1316    0.2957    3.6926 C.ar    1  LIG1        0.0313
     14 H           4.0554   -0.2037   -2.2183 H       1  LIG1        0.0618
     15 H           4.1754    0.0385    2.0729 H       1  LIG1        0.0636
     16 H           0.5305    0.0556    2.3676 H       1  LIG1        0.1522
     17 C           2.9906    1.3567    4.0022 C.ar    1  LIG1       -0.0405
     18 C           1.7903   -0.6221    4.6907 C.ar    1  LIG1       -0.0405
     19 H           5.3366   -0.1276   -0.0749 H       1  LIG1        0.0618
     20 C           3.5233    1.4745    5.2823 C.ar    1  LIG1       -0.0600
     21 C           2.3086   -0.4860    5.9765 C.ar    1  LIG1       -0.0600
     22 H           3.2250    2.0919    3.2370 H       1  LIG1        0.0636
     23 H           1.1201   -1.4435    4.4488 H       1  LIG1        0.0636
     24 C           3.1838    0.5561    6.2757 C.ar    1  LIG1       -0.0616
     25 H           4.1913    2.3015    5.5101 H       1  LIG1        0.0618
     26 H           2.0333   -1.2049    6.7440 H       1  LIG1        0.0618
     27 H           3.5935    0.6568    7.2771 H       1  LIG1        0.0618
@<TRIPOS>BOND
     1    14     8    1
     2    11     5    1
     3     8     5   ar
     4     8    12   ar
     5     3     7    1
     6     3     1    1
     7     5     2   ar
     8    19    12    1
     9    12     9   ar
    10     2     1    1
    11     2     6   ar
    12     1     4    2
    13     9     6   ar
    14     9    15    1
    15     6    10    1
    16    16    10    1
    17    10    13    1
    18    22    17    1
    19    13    17   ar
    20    13    18   ar
    21    17    20   ar
    22    23    18    1
    23    18    21   ar
    24    20    25    1
    25    20    24   ar
    26    21    24   ar
    27    21    26    1
    28    24    27    1
