@<TRIPOS>MOLECULE
zmat15.com
 27 28 0 0 0
SMALL
GASTEIGER
Energy = 0

@<TRIPOS>ATOM
      1 C           0.0000    0.0000    0.0000 C.2     1  LIG1        0.3386
      2 C           1.4659    0.0000    0.0000 C.ar    1  LIG1        0.0799
      3 O          -0.5481    0.0000   -1.2311 O.3     1  LIG1       -0.4771
      4 O          -0.7190   -0.0061    0.9925 O.2     1  LIG1       -0.2451
      5 C           2.1527   -0.1226   -1.2201 C.ar    1  LIG1       -0.0460
      6 C           2.2001    0.1122    1.2167 C.ar    1  LIG1        0.0454
      7 H          -1.5103   -0.0124   -1.0950 H       1  LIG1        0.2954
      8 C           3.5339   -0.1517   -1.2739 C.ar    1  LIG1       -0.0609
      9 C           3.6070    0.0437    1.1407 C.ar    1  LIG1       -0.0397
     10 N           1.5462    0.2026    2.4201 N.pl3   1  LIG1       -0.3138
     11 H           1.5691   -0.1998   -2.1313 H       1  LIG1        0.0626
     12 C           4.2537   -0.0806   -0.0759 C.ar    1  LIG1       -0.0600
     13 C           1.9700    0.7979    3.6144 C.ar    1  LIG1        0.0313
     14 H           4.0471   -0.2467   -2.2259 H       1  LIG1        0.0618
     15 H           4.1846    0.0456    2.0582 H       1  LIG1        0.0636
     16 H           0.5404    0.0662    2.3376 H       1  LIG1        0.1522
     17 C           3.0494    1.6857    3.7154 C.ar    1  LIG1       -0.0405
     18 C           1.2373    0.4943    4.7728 C.ar    1  LIG1       -0.0405
     19 H           5.3394   -0.1414   -0.0905 H       1  LIG1        0.0618
     20 C           3.3839    2.2414    4.9483 C.ar    1  LIG1       -0.0600
     21 C           1.5736    1.0621    5.9947 C.ar    1  LIG1       -0.0600
     22 H           3.6016    1.9812    2.8299 H       1  LIG1        0.0636
     23 H           0.4014   -0.1985    4.7025 H       1  LIG1        0.0636
     24 C           2.6572    1.9346    6.0957 C.ar    1  LIG1       -0.0616
     25 H           4.2197    2.9348    5.0031 H       1  LIG1        0.0618
     26 H           0.9887    0.8125    6.8765 H       1  LIG1        0.0618
     27 H           2.9261    2.3724    7.0529 H       1  LIG1        0.0618
@<TRIPOS>BOND
     1    14     8    1
     2    11     5    1
     3     8     5   ar
     4     8    12   ar
     5     3     7    1
     6     3     1    1
     7     5     2   ar
     8    19    12    1
     9    12     9   ar
    10     2     1    1
    11     2     6   ar
    12     1     4    2
    13     9     6   ar
    14     9    15    1
    15     6    10    1
    16    16    10    1
    17    10    13    1
    18    22    17    1
    19    13    17   ar
    20    13    18   ar
    21    17    20   ar
    22    23    18    1
    23    18    21   ar
    24    20    25    1
    25    20    24   ar
    26    21    24   ar
    27    21    26    1
    28    24    27    1
