@<TRIPOS>MOLECULE
zmat5.com
 27 28 0 0 0
SMALL
GASTEIGER
Energy = 0

@<TRIPOS>ATOM
      1 C           0.0000    0.0000    0.0000 C.2     1  LIG1        0.3386
      2 C           1.4671    0.0000    0.0000 C.ar    1  LIG1        0.0799
      3 O          -0.5470    0.0000   -1.2312 O.3     1  LIG1       -0.4771
      4 O          -0.7184   -0.0052    0.9923 O.2     1  LIG1       -0.2451
      5 C           2.1520   -0.1485   -1.2181 C.ar    1  LIG1       -0.0460
      6 C           2.2028    0.1373    1.2125 C.ar    1  LIG1        0.0454
      7 H          -1.5094   -0.0141   -1.0963 H       1  LIG1        0.2954
      8 C           3.5335   -0.1798   -1.2728 C.ar    1  LIG1       -0.0609
      9 C           3.6087    0.0622    1.1367 C.ar    1  LIG1       -0.0397
     10 N           1.5518    0.2523    2.4186 N.pl3   1  LIG1       -0.3138
     11 H           1.5675   -0.2441   -2.1270 H       1  LIG1        0.0626
     12 C           4.2550   -0.0866   -0.0781 C.ar    1  LIG1       -0.0600
     13 C           1.9297    0.9663    3.5622 C.ar    1  LIG1        0.0313
     14 H           4.0451   -0.2953   -2.2235 H       1  LIG1        0.0618
     15 H           4.1862    0.0725    2.0541 H       1  LIG1        0.0636
     16 H           0.5483    0.1006    2.3338 H       1  LIG1        0.1522
     17 C           3.0477    1.8068    3.6478 C.ar    1  LIG1       -0.0405
     18 C           1.1132    0.8185    4.6959 C.ar    1  LIG1       -0.0405
     19 H           5.3405   -0.1515   -0.0925 H       1  LIG1        0.0618
     20 C           3.3314    2.4738    4.8379 C.ar    1  LIG1       -0.0600
     21 C           1.4031    1.4925    5.8744 C.ar    1  LIG1       -0.0600
     22 H           3.6715    1.9859    2.7796 H       1  LIG1        0.0636
     23 H           0.2468    0.1627    4.6411 H       1  LIG1        0.0636
     24 C           2.5218    2.3218    5.9598 C.ar    1  LIG1       -0.0616
     25 H           4.1978    3.1298    4.8775 H       1  LIG1        0.0618
     26 H           0.7520    1.3620    6.7352 H       1  LIG1        0.0618
     27 H           2.7537    2.8439    6.8839 H       1  LIG1        0.0618
@<TRIPOS>BOND
     1    14     8    1
     2    11     5    1
     3     8     5   ar
     4     8    12   ar
     5     3     7    1
     6     3     1    1
     7     5     2   ar
     8    19    12    1
     9    12     9   ar
    10     2     1    1
    11     2     6   ar
    12     1     4    2
    13     9     6   ar
    14     9    15    1
    15     6    10    1
    16    16    10    1
    17    10    13    1
    18    22    17    1
    19    13    17   ar
    20    13    18   ar
    21    17    20   ar
    22    23    18    1
    23    18    21   ar
    24    20    25    1
    25    20    24   ar
    26    21    24   ar
    27    21    26    1
    28    24    27    1
