@<TRIPOS>MOLECULE
zmat80.com
 27 28 0 0 0
SMALL
GASTEIGER
Energy = 0

@<TRIPOS>ATOM
      1 C           0.0000    0.0000    0.0000 C.2     1  LIG1        0.3386
      2 C           1.4619    0.0000    0.0000 C.ar    1  LIG1        0.0799
      3 O          -0.5520    0.0000   -1.2312 O.3     1  LIG1       -0.4771
      4 O          -0.7193   -0.0105    0.9934 O.2     1  LIG1       -0.2451
      5 C           2.1591   -0.0291   -1.2209 C.ar    1  LIG1       -0.0460
      6 C           2.1876    0.0004    1.2275 C.ar    1  LIG1        0.0454
      7 H          -1.5134   -0.0049   -1.0908 H       1  LIG1        0.2954
      8 C           3.5400   -0.0667   -1.2662 C.ar    1  LIG1       -0.0609
      9 C           3.5969   -0.0558    1.1591 C.ar    1  LIG1       -0.0397
     10 N           1.5398    0.0643    2.4291 N.pl3   1  LIG1       -0.3138
     11 H           1.5819   -0.0266   -2.1398 H       1  LIG1        0.0626
     12 C           4.2503   -0.0867   -0.0590 C.ar    1  LIG1       -0.0600
     13 C           2.1622   -0.0949    3.6923 C.ar    1  LIG1        0.0313
     14 H           4.0614   -0.0886   -2.2182 H       1  LIG1        0.0618
     15 H           4.1673   -0.0784    2.0821 H       1  LIG1        0.0636
     16 H           0.5277   -0.0280    2.3730 H       1  LIG1        0.1522
     17 C           2.8600    0.9668    4.2743 C.ar    1  LIG1       -0.0405
     18 C           2.0253   -1.2960    4.3925 C.ar    1  LIG1       -0.0405
     19 H           5.3371   -0.1305   -0.0710 H       1  LIG1        0.0618
     20 C           3.4334    0.8192    5.5348 C.ar    1  LIG1       -0.0600
     21 C           2.5849   -1.4344    5.6611 C.ar    1  LIG1       -0.0600
     22 H           2.9409    1.9050    3.7315 H       1  LIG1        0.0636
     23 H           1.4799   -2.1171    3.9338 H       1  LIG1        0.0636
     24 C           3.2949   -0.3802    6.2325 C.ar    1  LIG1       -0.0616
     25 H           3.9765    1.6492    5.9796 H       1  LIG1        0.0618
     26 H           2.4699   -2.3710    6.2010 H       1  LIG1        0.0618
     27 H           3.7348   -0.4905    7.2203 H       1  LIG1        0.0618
@<TRIPOS>BOND
     1    14     8    1
     2    11     5    1
     3     8     5   ar
     4     8    12   ar
     5     3     7    1
     6     3     1    1
     7     5     2   ar
     8    19    12    1
     9    12     9   ar
    10     2     1    1
    11     2     6   ar
    12     1     4    2
    13     9     6   ar
    14     9    15    1
    15     6    10    1
    16    16    10    1
    17    10    13    1
    18    13    17   ar
    19    13    18   ar
    20    22    17    1
    21    23    18    1
    22    17    20   ar
    23    18    21   ar
    24    20    25    1
    25    20    24   ar
    26    21    26    1
    27    21    24   ar
    28    24    27    1
