@<TRIPOS>MOLECULE
zmat30.com
 27 28 0 0 0
SMALL
GASTEIGER
Energy = 0

@<TRIPOS>ATOM
      1 C           0.0000    0.0000    0.0000 C.2     1  LIG1        0.3386
      2 C           1.4643    0.0000    0.0000 C.ar    1  LIG1        0.0799
      3 O          -0.5498    0.0000   -1.2309 O.3     1  LIG1       -0.4771
      4 O          -0.7190   -0.0065    0.9931 O.2     1  LIG1       -0.2451
      5 C           2.1537   -0.1037   -1.2208 C.ar    1  LIG1       -0.0460
      6 C           2.1965    0.0853    1.2210 C.ar    1  LIG1        0.0454
      7 H          -1.5117   -0.0111   -1.0929 H       1  LIG1        0.2954
      8 C           3.5345   -0.1365   -1.2726 C.ar    1  LIG1       -0.0609
      9 C           3.6044    0.0202    1.1462 C.ar    1  LIG1       -0.0397
     10 N           1.5401    0.1670    2.4198 N.pl3   1  LIG1       -0.3138
     11 H           1.5711   -0.1626   -2.1341 H       1  LIG1        0.0626
     12 C           4.2516   -0.0861   -0.0713 C.ar    1  LIG1       -0.0600
     13 C           2.0320    0.5857    3.6630 C.ar    1  LIG1        0.0313
     14 H           4.0499   -0.2165   -2.2248 H       1  LIG1        0.0618
     15 H           4.1819    0.0187    2.0642 H       1  LIG1        0.0636
     16 H           0.5321    0.0431    2.3468 H       1  LIG1        0.1522
     17 C           3.0552    1.5321    3.8063 C.ar    1  LIG1       -0.0405
     18 C           1.4221    0.0683    4.8143 C.ar    1  LIG1       -0.0405
     19 H           5.3375   -0.1448   -0.0850 H       1  LIG1        0.0618
     20 C           3.4669    1.9288    5.0757 C.ar    1  LIG1       -0.0600
     21 C           1.8289    0.4834    6.0772 C.ar    1  LIG1       -0.0600
     22 H           3.5043    1.9844    2.9275 H       1  LIG1        0.0636
     23 H           0.6286   -0.6679    4.7070 H       1  LIG1        0.0636
     24 C           2.8619    1.4090    6.2184 C.ar    1  LIG1       -0.0616
     25 H           4.2596    2.6675    5.1679 H       1  LIG1        0.0618
     26 H           1.3410    0.0708    6.9568 H       1  LIG1        0.0618
     27 H           3.1864    1.7262    7.2056 H       1  LIG1        0.0618
@<TRIPOS>BOND
     1    14     8    1
     2    11     5    1
     3     8     5   ar
     4     8    12   ar
     5     3     7    1
     6     3     1    1
     7     5     2   ar
     8    19    12    1
     9    12     9   ar
    10     2     1    1
    11     2     6   ar
    12     1     4    2
    13     9     6   ar
    14     9    15    1
    15     6    10    1
    16    16    10    1
    17    10    13    1
    18    22    17    1
    19    13    17   ar
    20    13    18   ar
    21    17    20   ar
    22    23    18    1
    23    18    21   ar
    24    20    25    1
    25    20    24   ar
    26    21    24   ar
    27    21    26    1
    28    24    27    1
