@<TRIPOS>MOLECULE
zmat110.com
 27 28 0 0 0
SMALL
GASTEIGER
Energy = 0

@<TRIPOS>ATOM
      1 C           0.0000    0.0000    0.0000 C.2     1  LIG1        0.3386
      2 C           1.4620    0.0000    0.0000 C.ar    1  LIG1        0.0799
      3 O          -0.5516    0.0000   -1.2312 O.3     1  LIG1       -0.4771
      4 O          -0.7189    0.0048    0.9937 O.2     1  LIG1       -0.2451
      5 C           2.1569    0.0798   -1.2198 C.ar    1  LIG1       -0.0460
      6 C           2.1897   -0.0610    1.2251 C.ar    1  LIG1        0.0454
      7 H          -1.5131    0.0084   -1.0907 H       1  LIG1        0.2954
      8 C           3.5378    0.1125   -1.2666 C.ar    1  LIG1       -0.0609
      9 C           3.5991   -0.0106    1.1555 C.ar    1  LIG1       -0.0397
     10 N           1.5400   -0.1712    2.4222 N.pl3   1  LIG1       -0.3138
     11 H           1.5776    0.1213   -2.1363 H       1  LIG1        0.0626
     12 C           4.2501    0.0733   -0.0613 C.ar    1  LIG1       -0.0600
     13 C           2.1597   -0.1710    3.6933 C.ar    1  LIG1        0.0313
     14 H           4.0574    0.1757   -2.2178 H       1  LIG1        0.0618
     15 H           4.1727   -0.0302    2.0765 H       1  LIG1        0.0636
     16 H           0.5308   -0.0497    2.3733 H       1  LIG1        0.1522
     17 C           1.9951    0.9192    4.5518 C.ar    1  LIG1       -0.0405
     18 C           2.9228   -1.2664    4.1091 C.ar    1  LIG1       -0.0405
     19 H           5.3370    0.1141   -0.0731 H       1  LIG1        0.0618
     20 C           2.5726    0.9048    5.8199 C.ar    1  LIG1       -0.0600
     21 C           3.5158   -1.2676    5.3685 C.ar    1  LIG1       -0.0600
     22 H           1.4115    1.7734    4.2174 H       1  LIG1        0.0636
     23 H           3.0356   -2.1160    3.4405 H       1  LIG1        0.0636
     24 C           3.3390   -0.1846    6.2295 C.ar    1  LIG1       -0.0616
     25 H           2.4316    1.7536    6.4843 H       1  LIG1        0.0618
     26 H           4.1060   -2.1244    5.6840 H       1  LIG1        0.0618
     27 H           3.7951   -0.1914    7.2160 H       1  LIG1        0.0618
@<TRIPOS>BOND
     1    14     8    1
     2    11     5    1
     3     8     5   ar
     4     8    12   ar
     5     3     7    1
     6     3     1    1
     7     5     2   ar
     8    19    12    1
     9    12     9   ar
    10     2     1    1
    11     2     6   ar
    12     1     4    2
    13     9     6   ar
    14     9    15    1
    15     6    10    1
    16    16    10    1
    17    10    13    1
    18    23    18    1
    19    13    18   ar
    20    13    17   ar
    21    18    21   ar
    22    22    17    1
    23    17    20   ar
    24    21    26    1
    25    21    24   ar
    26    20    24   ar
    27    20    25    1
    28    24    27    1
