@<TRIPOS>MOLECULE
zmat155.com
 27 28 0 0 0
SMALL
GASTEIGER
Energy = 0

@<TRIPOS>ATOM
      1 C           0.0000    0.0000    0.0000 C.2     1  LIG1        0.3386
      2 C           1.4645    0.0000    0.0000 C.ar    1  LIG1        0.0799
      3 O          -0.5499    0.0000   -1.2308 O.3     1  LIG1       -0.4771
      4 O          -0.7191    0.0070    0.9930 O.2     1  LIG1       -0.2451
      5 C           2.1538    0.1049   -1.2207 C.ar    1  LIG1       -0.0460
      6 C           2.1968   -0.0847    1.2209 C.ar    1  LIG1        0.0454
      7 H          -1.5118    0.0116   -1.0929 H       1  LIG1        0.2954
      8 C           3.5346    0.1393   -1.2725 C.ar    1  LIG1       -0.0609
      9 C           3.6046   -0.0171    1.1462 C.ar    1  LIG1       -0.0397
     10 N           1.5406   -0.1680    2.4198 N.pl3   1  LIG1       -0.3138
     11 H           1.5712    0.1635   -2.1341 H       1  LIG1        0.0626
     12 C           4.2517    0.0902   -0.0713 C.ar    1  LIG1       -0.0600
     13 C           2.0285   -0.5970    3.6607 C.ar    1  LIG1        0.0313
     14 H           4.0498    0.2202   -2.2247 H       1  LIG1        0.0618
     15 H           4.1820   -0.0131    2.0642 H       1  LIG1        0.0636
     16 H           0.5326   -0.0454    2.3461 H       1  LIG1        0.1522
     17 C           1.3909   -0.1147    4.8127 C.ar    1  LIG1       -0.0405
     18 C           3.0552   -1.5404    3.8017 C.ar    1  LIG1       -0.0405
     19 H           5.3375    0.1511   -0.0849 H       1  LIG1        0.0618
     20 C           1.7833   -0.5496    6.0733 C.ar    1  LIG1       -0.0600
     21 C           3.4517   -1.9574    5.0694 C.ar    1  LIG1       -0.0600
     22 H           0.5885    0.6121    4.7078 H       1  LIG1        0.0636
     23 H           3.5206   -1.9736    2.9219 H       1  LIG1        0.0636
     24 C           2.8249   -1.4660    6.2127 C.ar    1  LIG1       -0.0616
     25 H           1.2756   -0.1614    6.9529 H       1  LIG1        0.0618
     26 H           4.2491   -2.6913    5.1590 H       1  LIG1        0.0618
     27 H           3.1376   -1.7992    7.1984 H       1  LIG1        0.0618
@<TRIPOS>BOND
     1    14     8    1
     2    11     5    1
     3     8     5   ar
     4     8    12   ar
     5     3     7    1
     6     3     1    1
     7     5     2   ar
     8    19    12    1
     9    12     9   ar
    10     2     1    1
    11     2     6   ar
    12     1     4    2
    13     9     6   ar
    14     9    15    1
    15     6    10    1
    16    16    10    1
    17    10    13    1
    18    23    18    1
    19    13    18   ar
    20    13    17   ar
    21    18    21   ar
    22    22    17    1
    23    17    20   ar
    24    21    26    1
    25    21    24   ar
    26    20    24   ar
    27    20    25    1
    28    24    27    1
