@<TRIPOS>MOLECULE
zmat120.com
 27 28 0 0 0
SMALL
GASTEIGER
Energy = 0

@<TRIPOS>ATOM
      1 C           0.0000    0.0000    0.0000 C.2     1  LIG1        0.3386
      2 C           1.4624    0.0000    0.0000 C.ar    1  LIG1        0.0799
      3 O          -0.5519    0.0000   -1.2308 O.3     1  LIG1       -0.4771
      4 O          -0.7187    0.0052    0.9938 O.2     1  LIG1       -0.2451
      5 C           2.1559    0.0868   -1.2201 C.ar    1  LIG1       -0.0460
      6 C           2.1913   -0.0675    1.2243 C.ar    1  LIG1        0.0454
      7 H          -1.5134    0.0088   -1.0904 H       1  LIG1        0.2954
      8 C           3.5367    0.1202   -1.2684 C.ar    1  LIG1       -0.0609
      9 C           3.6005   -0.0138    1.1531 C.ar    1  LIG1       -0.0397
     10 N           1.5387   -0.1741    2.4205 N.pl3   1  LIG1       -0.3138
     11 H           1.5757    0.1330   -2.1357 H       1  LIG1        0.0626
     12 C           4.2501    0.0772   -0.0639 C.ar    1  LIG1       -0.0600
     13 C           2.1383   -0.2555    3.6942 C.ar    1  LIG1        0.0313
     14 H           4.0553    0.1885   -2.2198 H       1  LIG1        0.0618
     15 H           4.1756   -0.0307    2.0728 H       1  LIG1        0.0636
     16 H           0.5303   -0.0477    2.3680 H       1  LIG1        0.1522
     17 C           1.8569    0.7203    4.6550 C.ar    1  LIG1       -0.0405
     18 C           2.9850   -1.3196    4.0241 C.ar    1  LIG1       -0.0405
     19 H           5.3367    0.1226   -0.0761 H       1  LIG1        0.0618
     20 C           2.4052    0.6255    5.9322 C.ar    1  LIG1       -0.0600
     21 C           3.5480   -1.3973    5.2945 C.ar    1  LIG1       -0.0600
     22 H           1.2071    1.5514    4.3917 H       1  LIG1        0.0636
     23 H           3.1847   -2.0889    3.2828 H       1  LIG1        0.0636
     24 C           3.2582   -0.4281    6.2547 C.ar    1  LIG1       -0.0616
     25 H           2.1736    1.3865    6.6731 H       1  LIG1        0.0618
     26 H           4.2032   -2.2292    5.5404 H       1  LIG1        0.0618
     27 H           3.6921   -0.4963    7.2488 H       1  LIG1        0.0618
@<TRIPOS>BOND
     1    14     8    1
     2    11     5    1
     3     8     5   ar
     4     8    12   ar
     5     3     7    1
     6     3     1    1
     7     5     2   ar
     8    19    12    1
     9    12     9   ar
    10     2     1    1
    11     2     6   ar
    12     1     4    2
    13     9     6   ar
    14     9    15    1
    15     6    10    1
    16    16    10    1
    17    10    13    1
    18    23    18    1
    19    13    18   ar
    20    13    17   ar
    21    18    21   ar
    22    22    17    1
    23    17    20   ar
    24    21    26    1
    25    21    24   ar
    26    20    24   ar
    27    20    25    1
    28    24    27    1
