@<TRIPOS>MOLECULE
zmat40.com
 27 28 0 0 0
SMALL
GASTEIGER
Energy = 0

@<TRIPOS>ATOM
      1 C           0.0000    0.0000    0.0000 C.2     1  LIG1        0.3386
      2 C           1.4636    0.0000    0.0000 C.ar    1  LIG1        0.0799
      3 O          -0.5504    0.0000   -1.2308 O.3     1  LIG1       -0.4771
      4 O          -0.7192   -0.0046    0.9932 O.2     1  LIG1       -0.2451
      5 C           2.1546   -0.1064   -1.2198 C.ar    1  LIG1       -0.0460
      6 C           2.1944    0.0882    1.2219 C.ar    1  LIG1        0.0454
      7 H          -1.5122   -0.0106   -1.0922 H       1  LIG1        0.2954
      8 C           3.5354   -0.1390   -1.2699 C.ar    1  LIG1       -0.0609
      9 C           3.6030    0.0285    1.1488 C.ar    1  LIG1       -0.0397
     10 N           1.5374    0.1847    2.4179 N.pl3   1  LIG1       -0.3138
     11 H           1.5729   -0.1678   -2.1335 H       1  LIG1        0.0626
     12 C           4.2509   -0.0816   -0.0677 C.ar    1  LIG1       -0.0600
     13 C           2.0664    0.5111    3.6755 C.ar    1  LIG1        0.0313
     14 H           4.0521   -0.2217   -2.2212 H       1  LIG1        0.0618
     15 H           4.1801    0.0408    2.0670 H       1  LIG1        0.0636
     16 H           0.5294    0.0582    2.3531 H       1  LIG1        0.1522
     17 C           3.0373    1.5058    3.8498 C.ar    1  LIG1       -0.0405
     18 C           1.5438   -0.1334    4.8041 C.ar    1  LIG1       -0.0405
     19 H           5.3371   -0.1353   -0.0804 H       1  LIG1        0.0618
     20 C           3.4907    1.8237    5.1266 C.ar    1  LIG1       -0.0600
     21 C           1.9881    0.2049    6.0783 C.ar    1  LIG1       -0.0600
     22 H           3.4151    2.0479    2.9878 H       1  LIG1        0.0636
     23 H           0.7897   -0.9055    4.6705 H       1  LIG1        0.0636
     24 C           2.9719    1.1777    6.2477 C.ar    1  LIG1       -0.0616
     25 H           4.2435    2.5993    5.2451 H       1  LIG1        0.0618
     26 H           1.5694   -0.3046    6.9425 H       1  LIG1        0.0618
     27 H           3.3256    1.4346    7.2425 H       1  LIG1        0.0618
@<TRIPOS>BOND
     1    14     8    1
     2    11     5    1
     3     8     5   ar
     4     8    12   ar
     5     3     7    1
     6     3     1    1
     7     5     2   ar
     8    19    12    1
     9    12     9   ar
    10     2     1    1
    11     2     6   ar
    12     1     4    2
    13     9     6   ar
    14     9    15    1
    15     6    10    1
    16    16    10    1
    17    10    13    1
    18    22    17    1
    19    13    17   ar
    20    13    18   ar
    21    17    20   ar
    22    23    18    1
    23    18    21   ar
    24    20    25    1
    25    20    24   ar
    26    21    24   ar
    27    21    26    1
    28    24    27    1
