@<TRIPOS>MOLECULE
zmat165.com
 27 28 0 0 0
SMALL
GASTEIGER
Energy = 0

@<TRIPOS>ATOM
      1 C           0.0000    0.0000    0.0000 C.2     1  LIG1        0.3386
      2 C           1.4655    0.0000    0.0000 C.ar    1  LIG1        0.0799
      3 O          -0.5484    0.0000   -1.2311 O.3     1  LIG1       -0.4771
      4 O          -0.7189    0.0062    0.9927 O.2     1  LIG1       -0.2451
      5 C           2.1533    0.1160   -1.2203 C.ar    1  LIG1       -0.0460
      6 C           2.1989   -0.1049    1.2180 C.ar    1  LIG1        0.0454
      7 H          -1.5105    0.0120   -1.0946 H       1  LIG1        0.2954
      8 C           3.5345    0.1457   -1.2732 C.ar    1  LIG1       -0.0609
      9 C           3.6061   -0.0369    1.1428 C.ar    1  LIG1       -0.0397
     10 N           1.5443   -0.1931    2.4199 N.pl3   1  LIG1       -0.3138
     11 H           1.5702    0.1878   -2.1323 H       1  LIG1        0.0626
     12 C           4.2534    0.0812   -0.0741 C.ar    1  LIG1       -0.0600
     13 C           1.9865   -0.7463    3.6275 C.ar    1  LIG1        0.0313
     14 H           4.0485    0.2356   -2.2253 H       1  LIG1        0.0618
     15 H           4.1831   -0.0364    2.0607 H       1  LIG1        0.0636
     16 H           0.5378   -0.0604    2.3405 H       1  LIG1        0.1522
     17 C           1.2579   -0.4247    4.7832 C.ar    1  LIG1       -0.0405
     18 C           3.0429   -1.6613    3.7319 C.ar    1  LIG1       -0.0405
     19 H           5.3391    0.1416   -0.0883 H       1  LIG1        0.0618
     20 C           1.5941   -0.9796    6.0115 C.ar    1  LIG1       -0.0600
     21 C           3.3787   -2.2027    4.9704 C.ar    1  LIG1       -0.0600
     22 H           0.4284    0.2750    4.7071 H       1  LIG1        0.0636
     23 H           3.5796   -1.9818    2.8452 H       1  LIG1        0.0636
     24 C           2.6657   -1.8658    6.1184 C.ar    1  LIG1       -0.0616
     25 H           1.0159   -0.7121    6.8924 H       1  LIG1        0.0618
     26 H           4.2005   -2.9124    5.0293 H       1  LIG1        0.0618
     27 H           2.9337   -2.2943    7.0801 H       1  LIG1        0.0618
@<TRIPOS>BOND
     1    14     8    1
     2    11     5    1
     3     8     5   ar
     4     8    12   ar
     5     3     7    1
     6     3     1    1
     7     5     2   ar
     8    19    12    1
     9    12     9   ar
    10     2     1    1
    11     2     6   ar
    12     1     4    2
    13     9     6   ar
    14     9    15    1
    15     6    10    1
    16    16    10    1
    17    10    13    1
    18    23    18    1
    19    13    18   ar
    20    13    17   ar
    21    18    21   ar
    22    22    17    1
    23    17    20   ar
    24    21    26    1
    25    21    24   ar
    26    20    24   ar
    27    20    25    1
    28    24    27    1
