@<TRIPOS>MOLECULE
zmat90.com
 27 28 0 0 0
SMALL
GASTEIGER
Energy = 0

@<TRIPOS>ATOM
      1 C           0.0000    0.0000    0.0000 C.2     1  LIG1        0.3386
      2 C           1.4608    0.0000    0.0000 C.ar    1  LIG1        0.0799
      3 O          -0.5530    0.0000   -1.2311 O.3     1  LIG1       -0.4771
      4 O          -0.7190    0.0001    0.9941 O.2     1  LIG1       -0.2451
      5 C           2.1612   -0.0084   -1.2194 C.ar    1  LIG1       -0.0460
      6 C           2.1844    0.0076    1.2291 C.ar    1  LIG1        0.0454
      7 H          -1.5142   -0.0007   -1.0895 H       1  LIG1        0.2954
      8 C           3.5426   -0.0106   -1.2619 C.ar    1  LIG1       -0.0609
      9 C           3.5958    0.0043    1.1637 C.ar    1  LIG1       -0.0397
     10 N           1.5397    0.0195    2.4295 N.pl3   1  LIG1       -0.3138
     11 H           1.5858   -0.0136   -2.1394 H       1  LIG1        0.0626
     12 C           4.2514   -0.0046   -0.0531 C.ar    1  LIG1       -0.0600
     13 C           2.1886    0.0193    3.6923 C.ar    1  LIG1        0.0313
     14 H           4.0664   -0.0174   -2.2128 H       1  LIG1        0.0618
     15 H           4.1636    0.0085    2.0890 H       1  LIG1        0.0636
     16 H           0.5231    0.0092    2.3857 H       1  LIG1        0.1522
     17 C           2.5206    1.2272    4.3099 C.ar    1  LIG1       -0.0405
     18 C           2.4738   -1.1876    4.3349 C.ar    1  LIG1       -0.0405
     19 H           5.3390   -0.0071   -0.0636 H       1  LIG1        0.0618
     20 C           3.1311    1.2273    5.5623 C.ar    1  LIG1       -0.0600
     21 C           3.0833   -1.1851    5.5879 C.ar    1  LIG1       -0.0600
     22 H           2.2931    2.1596    3.7998 H       1  LIG1        0.0636
     23 H           2.2114   -2.1211    3.8440 H       1  LIG1        0.0636
     24 C           3.4130    0.0216    6.2030 C.ar    1  LIG1       -0.0616
     25 H           3.3838    2.1709    6.0394 H       1  LIG1        0.0618
     26 H           3.2991   -2.1275    6.0849 H       1  LIG1        0.0618
     27 H           3.8869    0.0226    7.1812 H       1  LIG1        0.0618
@<TRIPOS>BOND
     1    14     8    1
     2    11     5    1
     3     8     5   ar
     4     8    12   ar
     5     3     7    1
     6     3     1    1
     7     5     2   ar
     8    19    12    1
     9    12     9   ar
    10     2     1    1
    11     2     6   ar
    12     1     4    2
    13     9     6   ar
    14     9    15    1
    15     6    10    1
    16    16    10    1
    17    10    13    1
    18    13    17   ar
    19    13    18   ar
    20    22    17    1
    21    23    18    1
    22    17    20   ar
    23    18    21   ar
    24    20    25    1
    25    20    24   ar
    26    21    26    1
    27    21    24   ar
    28    24    27    1
