@<TRIPOS>MOLECULE
zmat145.com
 27 28 0 0 0
SMALL
GASTEIGER
Energy = 0

@<TRIPOS>ATOM
      1 C           0.0000    0.0000    0.0000 C.2     1  LIG1        0.3386
      2 C           1.4637    0.0000    0.0000 C.ar    1  LIG1        0.0799
      3 O          -0.5504    0.0000   -1.2309 O.3     1  LIG1       -0.4771
      4 O          -0.7191    0.0044    0.9933 O.2     1  LIG1       -0.2451
      5 C           2.1546    0.1100   -1.2195 C.ar    1  LIG1       -0.0460
      6 C           2.1945   -0.0910    1.2217 C.ar    1  LIG1        0.0454
      7 H          -1.5122    0.0103   -1.0922 H       1  LIG1        0.2954
      8 C           3.5354    0.1427   -1.2695 C.ar    1  LIG1       -0.0609
      9 C           3.6030   -0.0304    1.1488 C.ar    1  LIG1       -0.0397
     10 N           1.5373   -0.1906    2.4174 N.pl3   1  LIG1       -0.3138
     11 H           1.5730    0.1738   -2.1331 H       1  LIG1        0.0626
     12 C           4.2510    0.0828   -0.0675 C.ar    1  LIG1       -0.0600
     13 C           2.0613   -0.5337    3.6722 C.ar    1  LIG1        0.0313
     14 H           4.0521    0.2279   -2.2206 H       1  LIG1        0.0618
     15 H           4.1799   -0.0435    2.0671 H       1  LIG1        0.0636
     16 H           0.5295   -0.0626    2.3522 H       1  LIG1        0.1522
     17 C           1.5256    0.0883    4.8074 C.ar    1  LIG1       -0.0405
     18 C           3.0401   -1.5223    3.8377 C.ar    1  LIG1       -0.0405
     19 H           5.3372    0.1375   -0.0799 H       1  LIG1        0.0618
     20 C           1.9645   -0.2657    6.0791 C.ar    1  LIG1       -0.0600
     21 C           3.4874   -1.8562    5.1128 C.ar    1  LIG1       -0.0600
     22 H           0.7653    0.8557    4.6810 H       1  LIG1        0.0636
     23 H           3.4283   -2.0486    2.9706 H       1  LIG1        0.0636
     24 C           2.9557   -1.2323    6.2402 C.ar    1  LIG1       -0.0616
     25 H           1.5354    0.2266    6.9481 H       1  LIG1        0.0618
     26 H           4.2461   -2.6271    5.2241 H       1  LIG1        0.0618
     27 H           3.3050   -1.5016    7.2332 H       1  LIG1        0.0618
@<TRIPOS>BOND
     1    14     8    1
     2    11     5    1
     3     8     5   ar
     4     8    12   ar
     5     3     7    1
     6     3     1    1
     7     5     2   ar
     8    19    12    1
     9    12     9   ar
    10     2     1    1
    11     2     6   ar
    12     1     4    2
    13     9     6   ar
    14     9    15    1
    15     6    10    1
    16    16    10    1
    17    10    13    1
    18    23    18    1
    19    13    18   ar
    20    13    17   ar
    21    18    21   ar
    22    22    17    1
    23    17    20   ar
    24    21    26    1
    25    21    24   ar
    26    20    24   ar
    27    20    25    1
    28    24    27    1
