@<TRIPOS>MOLECULE
zmat180.com
 27 28 0 0 0
SMALL
GASTEIGER
Energy = 0

@<TRIPOS>ATOM
      1 C           0.0000    0.0000    0.0000 C.2     1  LIG1        0.3386
      2 C           1.4671    0.0000    0.0000 C.ar    1  LIG1        0.0799
      3 O          -0.5469    0.0000   -1.2313 O.3     1  LIG1       -0.4771
      4 O          -0.7180    0.0047    0.9925 O.2     1  LIG1       -0.2451
      5 C           2.1517    0.1507   -1.2177 C.ar    1  LIG1       -0.0460
      6 C           2.2032   -0.1375    1.2121 C.ar    1  LIG1        0.0454
      7 H          -1.5093    0.0138   -1.0966 H       1  LIG1        0.2954
      8 C           3.5332    0.1840   -1.2726 C.ar    1  LIG1       -0.0609
      9 C           3.6088   -0.0583    1.1365 C.ar    1  LIG1       -0.0397
     10 N           1.5531   -0.2587    2.4181 N.pl3   1  LIG1       -0.3138
     11 H           1.5670    0.2464   -2.1265 H       1  LIG1        0.0626
     12 C           4.2550    0.0920   -0.0781 C.ar    1  LIG1       -0.0600
     13 C           1.9262   -0.9891    3.5527 C.ar    1  LIG1        0.0313
     14 H           4.0445    0.3011   -2.2233 H       1  LIG1        0.0618
     15 H           4.1860   -0.0647    2.0542 H       1  LIG1        0.0636
     16 H           0.5497   -0.1070    2.3340 H       1  LIG1        0.1522
     17 C           1.0563   -0.9271    4.6544 C.ar    1  LIG1       -0.0405
     18 C           3.0426   -1.8328    3.6308 C.ar    1  LIG1       -0.0405
     19 H           5.3403    0.1597   -0.0925 H       1  LIG1        0.0618
     20 C           1.3166   -1.6518    5.8093 C.ar    1  LIG1       -0.0600
     21 C           3.2956   -2.5523    4.7971 C.ar    1  LIG1       -0.0600
     22 H           0.1748   -0.2918    4.5967 H       1  LIG1        0.0636
     23 H           3.6957   -1.9669    2.7763 H       1  LIG1        0.0636
     24 C           2.4467   -2.4652    5.8964 C.ar    1  LIG1       -0.0616
     25 H           0.6283   -1.5798    6.6478 H       1  LIG1        0.0618
     26 H           4.1669   -3.2019    4.8330 H       1  LIG1        0.0618
     27 H           2.6538   -3.0291    6.8015 H       1  LIG1        0.0618
@<TRIPOS>BOND
     1    14     8    1
     2    11     5    1
     3     8     5   ar
     4     8    12   ar
     5     3     7    1
     6     3     1    1
     7     5     2   ar
     8    19    12    1
     9    12     9   ar
    10     2     1    1
    11     2     6   ar
    12     1     4    2
    13     9     6   ar
    14     9    15    1
    15     6    10    1
    16    16    10    1
    17    10    13    1
    18    23    18    1
    19    13    18   ar
    20    13    17   ar
    21    18    21   ar
    22    22    17    1
    23    17    20   ar
    24    21    26    1
    25    21    24   ar
    26    20    24   ar
    27    20    25    1
    28    24    27    1
