@<TRIPOS>MOLECULE
zmat115.com
 27 28 0 0 0
SMALL
GASTEIGER
Energy = 0

@<TRIPOS>ATOM
      1 C           0.0000    0.0000    0.0000 C.2     1  LIG1        0.3386
      2 C           1.4622    0.0000    0.0000 C.ar    1  LIG1        0.0799
      3 O          -0.5520    0.0000   -1.2309 O.3     1  LIG1       -0.4771
      4 O          -0.7188    0.0051    0.9938 O.2     1  LIG1       -0.2451
      5 C           2.1566    0.0831   -1.2199 C.ar    1  LIG1       -0.0460
      6 C           2.1904   -0.0641    1.2247 C.ar    1  LIG1        0.0454
      7 H          -1.5135    0.0085   -1.0904 H       1  LIG1        0.2954
      8 C           3.5374    0.1159   -1.2673 C.ar    1  LIG1       -0.0609
      9 C           3.5997   -0.0121    1.1546 C.ar    1  LIG1       -0.0397
     10 N           1.5390   -0.1726    2.4213 N.pl3   1  LIG1       -0.3138
     11 H           1.5769    0.1267   -2.1360 H       1  LIG1        0.0626
     12 C           4.2501    0.0750   -0.0623 C.ar    1  LIG1       -0.0600
     13 C           2.1489   -0.2114    3.6944 C.ar    1  LIG1        0.0313
     14 H           4.0566    0.1814   -2.2185 H       1  LIG1        0.0618
     15 H           4.1740   -0.0303    2.0749 H       1  LIG1        0.0636
     16 H           0.5303   -0.0483    2.3703 H       1  LIG1        0.1522
     17 C           1.9241    0.8241    4.6056 C.ar    1  LIG1       -0.0405
     18 C           2.9564   -1.2913    4.0661 C.ar    1  LIG1       -0.0405
     19 H           5.3369    0.1180   -0.0741 H       1  LIG1        0.0618
     20 C           2.4877    0.7715    5.8789 C.ar    1  LIG1       -0.0600
     21 C           3.5352   -1.3286    5.3313 C.ar    1  LIG1       -0.0600
     22 H           1.3055    1.6671    4.3078 H       1  LIG1        0.0636
     23 H           3.1140   -2.1025    3.3601 H       1  LIG1        0.0636
     24 C           3.3001   -0.3003    6.2436 C.ar    1  LIG1       -0.0616
     25 H           2.2999    1.5782    6.5829 H       1  LIG1        0.0618
     26 H           4.1600   -2.1732    5.6111 H       1  LIG1        0.0618
     27 H           3.7456   -0.3362    7.2342 H       1  LIG1        0.0618
@<TRIPOS>BOND
     1    14     8    1
     2    11     5    1
     3     8     5   ar
     4     8    12   ar
     5     3     7    1
     6     3     1    1
     7     5     2   ar
     8    19    12    1
     9    12     9   ar
    10     2     1    1
    11     2     6   ar
    12     1     4    2
    13     9     6   ar
    14     9    15    1
    15     6    10    1
    16    16    10    1
    17    10    13    1
    18    23    18    1
    19    13    18   ar
    20    13    17   ar
    21    18    21   ar
    22    22    17    1
    23    17    20   ar
    24    21    26    1
    25    21    24   ar
    26    20    24   ar
    27    20    25    1
    28    24    27    1
