@<TRIPOS>MOLECULE
zmat135.com
 27 28 0 0 0
SMALL
GASTEIGER
Energy = 0

@<TRIPOS>ATOM
      1 C           0.0000    0.0000    0.0000 C.2     1  LIG1        0.3386
      2 C           1.4631    0.0000    0.0000 C.ar    1  LIG1        0.0799
      3 O          -0.5511    0.0000   -1.2309 O.3     1  LIG1       -0.4771
      4 O          -0.7192    0.0057    0.9934 O.2     1  LIG1       -0.2451
      5 C           2.1549    0.0996   -1.2199 C.ar    1  LIG1       -0.0460
      6 C           2.1934   -0.0827    1.2227 C.ar    1  LIG1        0.0454
      7 H          -1.5127    0.0104   -1.0916 H       1  LIG1        0.2954
      8 C           3.5357    0.1311   -1.2698 C.ar    1  LIG1       -0.0609
      9 C           3.6023   -0.0267    1.1499 C.ar    1  LIG1       -0.0397
     10 N           1.5377   -0.1841    2.4183 N.pl3   1  LIG1       -0.3138
     11 H           1.5736    0.1567   -2.1343 H       1  LIG1        0.0626
     12 C           4.2507    0.0772   -0.0669 C.ar    1  LIG1       -0.0600
     13 C           2.0963   -0.4207    3.6857 C.ar    1  LIG1        0.0313
     14 H           4.0529    0.2087   -2.2212 H       1  LIG1        0.0618
     15 H           4.1791   -0.0431    2.0684 H       1  LIG1        0.0636
     16 H           0.5299   -0.0549    2.3598 H       1  LIG1        0.1522
     17 C           1.6627    0.3504    4.7703 C.ar    1  LIG1       -0.0405
     18 C           3.0284   -1.4429    3.9045 C.ar    1  LIG1       -0.0405
     19 H           5.3371    0.1268   -0.0796 H       1  LIG1        0.0618
     20 C           2.1508    0.1019    6.0500 C.ar    1  LIG1       -0.0600
     21 C           3.5283   -1.6709    5.1830 C.ar    1  LIG1       -0.0600
     22 H           0.9431    1.1474    4.5993 H       1  LIG1        0.0636
     23 H           3.3410   -2.0700    3.0742 H       1  LIG1        0.0636
     24 C           3.0931   -0.9027    6.2623 C.ar    1  LIG1       -0.0616
     25 H           1.8010    0.7070    6.8826 H       1  LIG1        0.0618
     26 H           4.2503   -2.4689    5.3385 H       1  LIG1        0.0618
     27 H           3.4810   -1.0895    7.2600 H       1  LIG1        0.0618
@<TRIPOS>BOND
     1    14     8    1
     2    11     5    1
     3     8     5   ar
     4     8    12   ar
     5     3     7    1
     6     3     1    1
     7     5     2   ar
     8    19    12    1
     9    12     9   ar
    10     2     1    1
    11     2     6   ar
    12     1     4    2
    13     9     6   ar
    14     9    15    1
    15     6    10    1
    16    16    10    1
    17    10    13    1
    18    23    18    1
    19    13    18   ar
    20    13    17   ar
    21    18    21   ar
    22    22    17    1
    23    17    20   ar
    24    21    26    1
    25    21    24   ar
    26    20    24   ar
    27    20    25    1
    28    24    27    1
