@<TRIPOS>MOLECULE
zmat160.com
 27 28 0 0 0
SMALL
GASTEIGER
Energy = 0

@<TRIPOS>ATOM
      1 C           0.0000    0.0000    0.0000 C.2     1  LIG1        0.3386
      2 C           1.4649    0.0000    0.0000 C.ar    1  LIG1        0.0799
      3 O          -0.5491    0.0000   -1.2310 O.3     1  LIG1       -0.4771
      4 O          -0.7190    0.0065    0.9929 O.2     1  LIG1       -0.2451
      5 C           2.1533    0.1069   -1.2210 C.ar    1  LIG1       -0.0460
      6 C           2.1979   -0.0926    1.2196 C.ar    1  LIG1        0.0454
      7 H          -1.5111    0.0111   -1.0938 H       1  LIG1        0.2954
      8 C           3.5342    0.1386   -1.2736 C.ar    1  LIG1       -0.0609
      9 C           3.6055   -0.0241    1.1442 C.ar    1  LIG1       -0.0397
     10 N           1.5424   -0.1750    2.4203 N.pl3   1  LIG1       -0.3138
     11 H           1.5703    0.1696   -2.1337 H       1  LIG1        0.0626
     12 C           4.2524    0.0853   -0.0733 C.ar    1  LIG1       -0.0600
     13 C           2.0085   -0.6622    3.6475 C.ar    1  LIG1        0.0313
     14 H           4.0486    0.2212   -2.2261 H       1  LIG1        0.0618
     15 H           4.1828   -0.0190    2.0621 H       1  LIG1        0.0636
     16 H           0.5349   -0.0493    2.3432 H       1  LIG1        0.1522
     17 C           1.3248   -0.2572    4.8037 C.ar    1  LIG1       -0.0405
     18 C           3.0510   -1.5907    3.7718 C.ar    1  LIG1       -0.0405
     19 H           5.3381    0.1462   -0.0876 H       1  LIG1        0.0618
     20 C           1.6897   -0.7479    6.0515 C.ar    1  LIG1       -0.0600
     21 C           3.4179   -2.0654    5.0284 C.ar    1  LIG1       -0.0600
     22 H           0.5078    0.4552    4.7122 H       1  LIG1        0.0636
     23 H           3.5522   -1.9705    2.8874 H       1  LIG1        0.0636
     24 C           2.7476   -1.6479    6.1761 C.ar    1  LIG1       -0.0616
     25 H           1.1463   -0.4177    6.9333 H       1  LIG1        0.0618
     26 H           4.2283   -2.7865    5.1038 H       1  LIG1        0.0618
     27 H           3.0386   -2.0253    7.1524 H       1  LIG1        0.0618
@<TRIPOS>BOND
     1    14     8    1
     2    11     5    1
     3     8     5   ar
     4     8    12   ar
     5     3     7    1
     6     3     1    1
     7     5     2   ar
     8    19    12    1
     9    12     9   ar
    10     2     1    1
    11     2     6   ar
    12     1     4    2
    13     9     6   ar
    14     9    15    1
    15     6    10    1
    16    16    10    1
    17    10    13    1
    18    23    18    1
    19    13    18   ar
    20    13    17   ar
    21    18    21   ar
    22    22    17    1
    23    17    20   ar
    24    21    26    1
    25    21    24   ar
    26    20    24   ar
    27    20    25    1
    28    24    27    1
