@<TRIPOS>MOLECULE
zmat20.com
 27 28 0 0 0
SMALL
GASTEIGER
Energy = 0

@<TRIPOS>ATOM
      1 C           0.0000    0.0000    0.0000 C.2     1  LIG1        0.3386
      2 C           1.4653    0.0000    0.0000 C.ar    1  LIG1        0.0799
      3 O          -0.5488    0.0000   -1.2310 O.3     1  LIG1       -0.4771
      4 O          -0.7191   -0.0064    0.9927 O.2     1  LIG1       -0.2451
      5 C           2.1528   -0.1134   -1.2207 C.ar    1  LIG1       -0.0460
      6 C           2.1990    0.1012    1.2183 C.ar    1  LIG1        0.0454
      7 H          -1.5108   -0.0116   -1.0943 H       1  LIG1        0.2954
      8 C           3.5339   -0.1439   -1.2741 C.ar    1  LIG1       -0.0609
      9 C           3.6063    0.0326    1.1424 C.ar    1  LIG1       -0.0397
     10 N           1.5440    0.1857    2.4202 N.pl3   1  LIG1       -0.3138
     11 H           1.5694   -0.1823   -2.1328 H       1  LIG1        0.0626
     12 C           4.2529   -0.0831   -0.0749 C.ar    1  LIG1       -0.0600
     13 C           1.9919    0.7191    3.6349 C.ar    1  LIG1        0.0313
     14 H           4.0476   -0.2316   -2.2265 H       1  LIG1        0.0618
     15 H           4.1840    0.0308    2.0599 H       1  LIG1        0.0636
     16 H           0.5371    0.0562    2.3402 H       1  LIG1        0.1522
     17 C           3.0549    1.6248    3.7493 C.ar    1  LIG1       -0.0405
     18 C           1.2989    0.3425    4.7957 C.ar    1  LIG1       -0.0405
     19 H           5.3386   -0.1441   -0.0894 H       1  LIG1        0.0618
     20 C           3.4165    2.1234    4.9985 C.ar    1  LIG1       -0.0600
     21 C           1.6601    0.8557    6.0351 C.ar    1  LIG1       -0.0600
     22 H           3.5733    1.9748    2.8628 H       1  LIG1        0.0636
     23 H           0.4753   -0.3634    4.7137 H       1  LIG1        0.0636
     24 C           2.7295    1.7437    6.1489 C.ar    1  LIG1       -0.0616
     25 H           4.2398    2.8307    5.0651 H       1  LIG1        0.0618
     26 H           1.1066    0.5503    6.9196 H       1  LIG1        0.0618
     27 H           3.0180    2.1383    7.1191 H       1  LIG1        0.0618
@<TRIPOS>BOND
     1    14     8    1
     2    11     5    1
     3     8     5   ar
     4     8    12   ar
     5     3     7    1
     6     3     1    1
     7     5     2   ar
     8    19    12    1
     9    12     9   ar
    10     2     1    1
    11     2     6   ar
    12     1     4    2
    13     9     6   ar
    14     9    15    1
    15     6    10    1
    16    16    10    1
    17    10    13    1
    18    22    17    1
    19    13    17   ar
    20    13    18   ar
    21    17    20   ar
    22    23    18    1
    23    18    21   ar
    24    20    25    1
    25    20    24   ar
    26    21    24   ar
    27    21    26    1
    28    24    27    1
