@<TRIPOS>MOLECULE
zmat25.com
 27 28 0 0 0
SMALL
GASTEIGER
Energy = 0

@<TRIPOS>ATOM
      1 C           0.0000    0.0000    0.0000 C.2     1  LIG1        0.3386
      2 C           1.4648    0.0000    0.0000 C.ar    1  LIG1        0.0799
      3 O          -0.5493    0.0000   -1.2309 O.3     1  LIG1       -0.4771
      4 O          -0.7191   -0.0064    0.9929 O.2     1  LIG1       -0.2451
      5 C           2.1531   -0.1061   -1.2211 C.ar    1  LIG1       -0.0460
      6 C           2.1979    0.0924    1.2197 C.ar    1  LIG1        0.0454
      7 H          -1.5112   -0.0109   -1.0935 H       1  LIG1        0.2954
      8 C           3.5339   -0.1374   -1.2740 C.ar    1  LIG1       -0.0609
      9 C           3.6054    0.0251    1.1439 C.ar    1  LIG1       -0.0397
     10 N           1.5422    0.1733    2.4202 N.pl3   1  LIG1       -0.3138
     11 H           1.5699   -0.1686   -2.1338 H       1  LIG1        0.0626
     12 C           4.2521   -0.0839   -0.0737 C.ar    1  LIG1       -0.0600
     13 C           2.0126    0.6486    3.6508 C.ar    1  LIG1        0.0313
     14 H           4.0483   -0.2194   -2.2266 H       1  LIG1        0.0618
     15 H           4.1832    0.0217    2.0616 H       1  LIG1        0.0636
     16 H           0.5345    0.0486    2.3432 H       1  LIG1        0.1522
     17 C           3.0558    1.5754    3.7785 C.ar    1  LIG1       -0.0405
     18 C           1.3619    0.1998    4.8095 C.ar    1  LIG1       -0.0405
     19 H           5.3380   -0.1440   -0.0881 H       1  LIG1        0.0618
     20 C           3.4433    2.0214    5.0394 C.ar    1  LIG1       -0.0600
     21 C           1.7468    0.6626    6.0621 C.ar    1  LIG1       -0.0600
     22 H           3.5387    1.9782    2.8940 H       1  LIG1        0.0636
     23 H           0.5533   -0.5216    4.7157 H       1  LIG1        0.0636
     24 C           2.7983    1.5697    6.1886 C.ar    1  LIG1       -0.0616
     25 H           4.2513    2.7450    5.1179 H       1  LIG1        0.0618
     26 H           1.2267    0.3021    6.9462 H       1  LIG1        0.0618
     27 H           3.1056    1.9244    7.1685 H       1  LIG1        0.0618
@<TRIPOS>BOND
     1    14     8    1
     2    11     5    1
     3     8     5   ar
     4     8    12   ar
     5     3     7    1
     6     3     1    1
     7     5     2   ar
     8    19    12    1
     9    12     9   ar
    10     2     1    1
    11     2     6   ar
    12     1     4    2
    13     9     6   ar
    14     9    15    1
    15     6    10    1
    16    16    10    1
    17    10    13    1
    18    22    17    1
    19    13    17   ar
    20    13    18   ar
    21    17    20   ar
    22    23    18    1
    23    18    21   ar
    24    20    25    1
    25    20    24   ar
    26    21    24   ar
    27    21    26    1
    28    24    27    1
