@<TRIPOS>MOLECULE
zmat10.com
 27 28 0 0 0
SMALL
GASTEIGER
Energy = 0

@<TRIPOS>ATOM
      1 C           0.0000    0.0000    0.0000 C.2     1  LIG1        0.3386
      2 C           1.4664    0.0000    0.0000 C.ar    1  LIG1        0.0799
      3 O          -0.5474    0.0000   -1.2313 O.3     1  LIG1       -0.4771
      4 O          -0.7187   -0.0056    0.9924 O.2     1  LIG1       -0.2451
      5 C           2.1524   -0.1357   -1.2191 C.ar    1  LIG1       -0.0460
      6 C           2.2013    0.1261    1.2146 C.ar    1  LIG1        0.0454
      7 H          -1.5097   -0.0130   -1.0959 H       1  LIG1        0.2954
      8 C           3.5337   -0.1647   -1.2733 C.ar    1  LIG1       -0.0609
      9 C           3.6078    0.0559    1.1387 C.ar    1  LIG1       -0.0397
     10 N           1.5488    0.2279    2.4195 N.pl3   1  LIG1       -0.3138
     11 H           1.5683   -0.2231   -2.1292 H       1  LIG1        0.0626
     12 C           4.2543   -0.0808   -0.0770 C.ar    1  LIG1       -0.0600
     13 C           1.9487    0.8870    3.5882 C.ar    1  LIG1        0.0313
     14 H           4.0462   -0.2701   -2.2246 H       1  LIG1        0.0618
     15 H           4.1853    0.0635    2.0562 H       1  LIG1        0.0636
     16 H           0.5443    0.0830    2.3358 H       1  LIG1        0.1522
     17 C           3.0449    1.7553    3.6763 C.ar    1  LIG1       -0.0405
     18 C           1.1761    0.6610    4.7390 C.ar    1  LIG1       -0.0405
     19 H           5.3400   -0.1424   -0.0916 H       1  LIG1        0.0618
     20 C           3.3533    2.3708    4.8876 C.ar    1  LIG1       -0.0600
     21 C           1.4885    1.2861    5.9388 C.ar    1  LIG1       -0.0600
     22 H           3.6312    1.9927    2.7956 H       1  LIG1        0.0636
     23 H           0.3273   -0.0169    4.6805 H       1  LIG1        0.0636
     24 C           2.5871    2.1413    6.0270 C.ar    1  LIG1       -0.0616
     25 H           4.2022    3.0490    4.9308 H       1  LIG1        0.0618
     26 H           0.8720    1.0958    6.8139 H       1  LIG1        0.0618
     27 H           2.8370    2.6245    6.9674 H       1  LIG1        0.0618
@<TRIPOS>BOND
     1    14     8    1
     2    11     5    1
     3     8     5   ar
     4     8    12   ar
     5     3     7    1
     6     3     1    1
     7     5     2   ar
     8    19    12    1
     9    12     9   ar
    10     2     1    1
    11     2     6   ar
    12     1     4    2
    13     9     6   ar
    14     9    15    1
    15     6    10    1
    16    16    10    1
    17    10    13    1
    18    22    17    1
    19    13    17   ar
    20    13    18   ar
    21    17    20   ar
    22    23    18    1
    23    18    21   ar
    24    20    25    1
    25    20    24   ar
    26    21    24   ar
    27    21    26    1
    28    24    27    1
