@<TRIPOS>MOLECULE
zmat85.com
 27 28 0 0 0
SMALL
GASTEIGER
Energy = 0

@<TRIPOS>ATOM
      1 C           0.0000    0.0000    0.0000 C.2     1  LIG1        0.3386
      2 C           1.4616    0.0000    0.0000 C.ar    1  LIG1        0.0799
      3 O          -0.5523    0.0000   -1.2312 O.3     1  LIG1       -0.4771
      4 O          -0.7191   -0.0087    0.9937 O.2     1  LIG1       -0.2451
      5 C           2.1598   -0.0241   -1.2205 C.ar    1  LIG1       -0.0460
      6 C           2.1867   -0.0013    1.2278 C.ar    1  LIG1        0.0454
      7 H          -1.5137   -0.0045   -1.0902 H       1  LIG1        0.2954
      8 C           3.5408   -0.0572   -1.2648 C.ar    1  LIG1       -0.0609
      9 C           3.5965   -0.0500    1.1604 C.ar    1  LIG1       -0.0397
     10 N           1.5413    0.0557    2.4299 N.pl3   1  LIG1       -0.3138
     11 H           1.5831   -0.0206   -2.1397 H       1  LIG1        0.0626
     12 C           4.2506   -0.0756   -0.0572 C.ar    1  LIG1       -0.0600
     13 C           2.1743   -0.1101    3.6889 C.ar    1  LIG1        0.0313
     14 H           4.0629   -0.0754   -2.2165 H       1  LIG1        0.0618
     15 H           4.1660   -0.0684    2.0844 H       1  LIG1        0.0636
     16 H           0.5279   -0.0231    2.3781 H       1  LIG1        0.1522
     17 C           2.7841    0.9783    4.3171 C.ar    1  LIG1       -0.0405
     18 C           2.1460   -1.3508    4.3301 C.ar    1  LIG1       -0.0405
     19 H           5.3376   -0.1125   -0.0688 H       1  LIG1        0.0618
     20 C           3.3731    0.8222    5.5698 C.ar    1  LIG1       -0.0600
     21 C           2.7234   -1.5007    5.5895 C.ar    1  LIG1       -0.0600
     22 H           2.7861    1.9423    3.8151 H       1  LIG1        0.0636
     23 H           1.6694   -2.1922    3.8333 H       1  LIG1        0.0636
     24 C           3.3416   -0.4163    6.2094 C.ar    1  LIG1       -0.0616
     25 H           3.8467    1.6735    6.0525 H       1  LIG1        0.0618
     26 H           2.6930   -2.4680    6.0847 H       1  LIG1        0.0618
     27 H           3.7945   -0.5347    7.1905 H       1  LIG1        0.0618
@<TRIPOS>BOND
     1    14     8    1
     2    11     5    1
     3     8     5   ar
     4     8    12   ar
     5     3     7    1
     6     3     1    1
     7     5     2   ar
     8    19    12    1
     9    12     9   ar
    10     2     1    1
    11     2     6   ar
    12     1     4    2
    13     9     6   ar
    14     9    15    1
    15     6    10    1
    16    16    10    1
    17    10    13    1
    18    13    17   ar
    19    13    18   ar
    20    22    17    1
    21    23    18    1
    22    17    20   ar
    23    18    21   ar
    24    20    25    1
    25    20    24   ar
    26    21    26    1
    27    21    24   ar
    28    24    27    1
