@<TRIPOS>MOLECULE
zmat70.com
 27 28 0 0 0
SMALL
GASTEIGER
Energy = 0

@<TRIPOS>ATOM
      1 C           0.0000    0.0000    0.0000 C.2     1  LIG1        0.3386
      2 C           1.4621    0.0000    0.0000 C.ar    1  LIG1        0.0799
      3 O          -0.5518    0.0000   -1.2311 O.3     1  LIG1       -0.4771
      4 O          -0.7184   -0.0055    0.9941 O.2     1  LIG1       -0.2451
      5 C           2.1572   -0.0790   -1.2197 C.ar    1  LIG1       -0.0460
      6 C           2.1895    0.0589    1.2252 C.ar    1  LIG1        0.0454
      7 H          -1.5133   -0.0075   -1.0908 H       1  LIG1        0.2954
      8 C           3.5381   -0.1121   -1.2662 C.ar    1  LIG1       -0.0609
      9 C           3.5987    0.0069    1.1562 C.ar    1  LIG1       -0.0397
     10 N           1.5391    0.1680    2.4223 N.pl3   1  LIG1       -0.3138
     11 H           1.5781   -0.1192   -2.1365 H       1  LIG1        0.0626
     12 C           4.2501   -0.0757   -0.0606 C.ar    1  LIG1       -0.0600
     13 C           2.1534    0.1695    3.6949 C.ar    1  LIG1        0.0313
     14 H           4.0580   -0.1740   -2.2173 H       1  LIG1        0.0618
     15 H           4.1720    0.0228    2.0774 H       1  LIG1        0.0636
     16 H           0.5305    0.0424    2.3724 H       1  LIG1        0.1522
     17 C           2.9303    1.2569    4.1075 C.ar    1  LIG1       -0.0405
     18 C           1.9204   -0.8848    4.5819 C.ar    1  LIG1       -0.0405
     19 H           5.3368   -0.1180   -0.0720 H       1  LIG1        0.0618
     20 C           3.4908    1.2725    5.3814 C.ar    1  LIG1       -0.0600
     21 C           2.4654   -0.8547    5.8641 C.ar    1  LIG1       -0.0600
     22 H           3.0816    2.0885    3.4240 H       1  LIG1        0.0636
     23 H           1.3127   -1.7260    4.2573 H       1  LIG1        0.0636
     24 C           3.2581    0.2187    6.2650 C.ar    1  LIG1       -0.0616
     25 H           4.0958    2.1208    5.6918 H       1  LIG1        0.0618
     26 H           2.2750   -1.6781    6.5479 H       1  LIG1        0.0618
     27 H           3.6877    0.2379    7.2631 H       1  LIG1        0.0618
@<TRIPOS>BOND
     1    14     8    1
     2    11     5    1
     3     8     5   ar
     4     8    12   ar
     5     3     7    1
     6     3     1    1
     7     5     2   ar
     8    19    12    1
     9    12     9   ar
    10     2     1    1
    11     2     6   ar
    12     1     4    2
    13     9     6   ar
    14     9    15    1
    15     6    10    1
    16    16    10    1
    17    10    13    1
    18    22    17    1
    19    13    17   ar
    20    13    18   ar
    21    17    20   ar
    22    23    18    1
    23    18    21   ar
    24    20    25    1
    25    20    24   ar
    26    21    24   ar
    27    21    26    1
    28    24    27    1
