@<TRIPOS>MOLECULE
zmat175.com
 27 28 0 0 0
SMALL
GASTEIGER
Energy = 0

@<TRIPOS>ATOM
      1 C           0.0000    0.0000    0.0000 C.2     1  LIG1        0.3386
      2 C           1.4666    0.0000    0.0000 C.ar    1  LIG1        0.0799
      3 O          -0.5473    0.0000   -1.2312 O.3     1  LIG1       -0.4771
      4 O          -0.7182    0.0049    0.9926 O.2     1  LIG1       -0.2451
      5 C           2.1525    0.1424   -1.2183 C.ar    1  LIG1       -0.0460
      6 C           2.2016   -0.1322    1.2137 C.ar    1  LIG1        0.0454
      7 H          -1.5097    0.0134   -1.0960 H       1  LIG1        0.2954
      8 C           3.5339    0.1727   -1.2723 C.ar    1  LIG1       -0.0609
      9 C           3.6079   -0.0593    1.1384 C.ar    1  LIG1       -0.0397
     10 N           1.5500   -0.2443    2.4184 N.pl3   1  LIG1       -0.3138
     11 H           1.5684    0.2342   -2.1279 H       1  LIG1        0.0626
     12 C           4.2547    0.0838   -0.0765 C.ar    1  LIG1       -0.0600
     13 C           1.9448   -0.9275    3.5749 C.ar    1  LIG1        0.0313
     14 H           4.0462    0.2834   -2.2231 H       1  LIG1        0.0618
     15 H           4.1849   -0.0686    2.0562 H       1  LIG1        0.0636
     16 H           0.5459   -0.0961    2.3368 H       1  LIG1        0.1522
     17 C           1.1246   -0.7822    4.7057 C.ar    1  LIG1       -0.0405
     18 C           3.0362   -1.8038    3.6483 C.ar    1  LIG1       -0.0405
     19 H           5.3402    0.1472   -0.0907 H       1  LIG1        0.0618
     20 C           1.4080   -1.4626    5.8823 C.ar    1  LIG1       -0.0600
     21 C           3.3147   -2.4759    4.8366 C.ar    1  LIG1       -0.0600
     22 H           0.2642   -0.1184    4.6525 H       1  LIG1        0.0636
     23 H           3.6476   -1.9976    2.7741 H       1  LIG1        0.0636
     24 C           2.5139   -2.3091    5.9628 C.ar    1  LIG1       -0.0616
     25 H           0.7584   -1.3279    6.7437 H       1  LIG1        0.0618
     26 H           4.1653   -3.1525    4.8696 H       1  LIG1        0.0618
     27 H           2.7397   -2.8373    6.8849 H       1  LIG1        0.0618
@<TRIPOS>BOND
     1    14     8    1
     2    11     5    1
     3     8     5   ar
     4     8    12   ar
     5     3     7    1
     6     3     1    1
     7     5     2   ar
     8    19    12    1
     9    12     9   ar
    10     2     1    1
    11     2     6   ar
    12     1     4    2
    13     9     6   ar
    14     9    15    1
    15     6    10    1
    16    16    10    1
    17    10    13    1
    18    23    18    1
    19    13    18   ar
    20    13    17   ar
    21    18    21   ar
    22    22    17    1
    23    17    20   ar
    24    21    26    1
    25    21    24   ar
    26    20    24   ar
    27    20    25    1
    28    24    27    1
