@<TRIPOS>MOLECULE
zmat20.com
 30 31 0 0 0
SMALL
GASTEIGER
Energy = 0

@<TRIPOS>ATOM
      1 C           0.0000    0.0000    0.0000 C.2     1  LIG1        0.3386
      2 C           1.4663    0.0000    0.0000 C.ar    1  LIG1        0.0799
      3 C           2.1544    0.0000    1.2258 C.ar    1  LIG1       -0.0460
      4 C           3.5356    0.0269    1.2798 C.ar    1  LIG1       -0.0609
      5 C           4.2542    0.0756    0.0800 C.ar    1  LIG1       -0.0600
      6 C           3.6057    0.0739   -1.1421 C.ar    1  LIG1       -0.0397
      7 C           2.1991    0.0169   -1.2213 C.ar    1  LIG1        0.0454
      8 N           1.5446    0.0570   -2.4298 N.pl3   1  LIG1       -0.3136
      9 C           1.9840   -0.4269   -3.6695 C.ar    1  LIG1        0.0357
     10 C           2.9950   -1.3860   -3.7884 C.ar    1  LIG1       -0.0402
     11 C           3.3776   -1.8462   -5.0424 C.ar    1  LIG1       -0.0586
     12 C           2.7533   -1.3725   -6.1893 C.ar    1  LIG1       -0.0430
     13 C           1.7381   -0.4282   -6.0565 C.ar    1  LIG1        0.0456
     14 C           1.3343    0.0823   -4.8194 C.ar    1  LIG1       -0.0110
     15 C           0.2624    1.1214   -4.6694 C.3     1  LIG1       -0.0366
     16 O          -0.5476   -0.1431    1.2220 O.3     1  LIG1       -0.4771
     17 O          -0.7177    0.1216   -0.9860 O.2     1  LIG1       -0.2451
     18 CL          0.9682    0.1211   -7.5252 Cl      1  LIG1       -0.0832
     19 H           1.5721   -0.0171    2.1410 H       1  LIG1        0.0626
     20 H           4.0502    0.0272    2.2358 H       1  LIG1        0.0618
     21 H           5.3400    0.1326    0.0994 H       1  LIG1        0.0618
     22 H           4.1814    0.1547   -2.0578 H       1  LIG1        0.0636
     23 H           3.4526   -1.8035   -2.8979 H       1  LIG1        0.0636
     24 H           4.1584   -2.5976   -5.1247 H       1  LIG1        0.0619
     25 H           3.0340   -1.7302   -7.1743 H       1  LIG1        0.0632
     26 H           0.0496    1.6165   -5.6179 H       1  LIG1        0.0279
     27 H          -0.6796    0.6833   -4.3111 H       1  LIG1        0.0279
     28 H           0.5645    1.8816   -3.9406 H       1  LIG1        0.0279
     29 H           0.5378    0.1758   -2.3305 H       1  LIG1        0.1522
     30 H          -1.5101   -0.1130    1.0903 H       1  LIG1        0.2954
@<TRIPOS>BOND
     1    18    13    1
     2    25    12    1
     3    12    13   ar
     4    12    11   ar
     5    13    14   ar
     6    26    15    1
     7    24    11    1
     8    11    10   ar
     9    14    15    1
    10    14     9   ar
    11    15    27    1
    12    15    28    1
    13    10     9   ar
    14    10    23    1
    15     9     8    1
    16     8    29    1
    17     8     7    1
    18    22     6    1
    19     7     6   ar
    20     7     2   ar
    21     6     5   ar
    22    17     1    2
    23     1     2    1
    24     1    16    1
    25     2     3   ar
    26     5    21    1
    27     5     4   ar
    28    30    16    1
    29     3     4   ar
    30     3    19    1
    31     4    20    1
