@<TRIPOS>MOLECULE
zmat120.com
 30 31 0 0 0
SMALL
GASTEIGER
Energy = 0

@<TRIPOS>ATOM
      1 C           0.0000    0.0000    0.0000 C.2     1  LIG1        0.3386
      2 C           1.4628    0.0000    0.0000 C.ar    1  LIG1        0.0799
      3 C           2.1596    0.0000    1.2211 C.ar    1  LIG1       -0.0460
      4 C           3.5411   -0.0198    1.2668 C.ar    1  LIG1       -0.0609
      5 C           4.2524   -0.0501    0.0611 C.ar    1  LIG1       -0.0600
      6 C           3.5981   -0.0443   -1.1573 C.ar    1  LIG1       -0.0397
      7 C           2.1895   -0.0051   -1.2261 C.ar    1  LIG1        0.0454
      8 N           1.5396    0.0098   -2.4289 N.pl3   1  LIG1       -0.3136
      9 C           2.1428    0.0908   -3.7021 C.ar    1  LIG1        0.0357
     10 C           1.9183   -0.9575   -4.5993 C.ar    1  LIG1       -0.0402
     11 C           2.4515   -0.9173   -5.8815 C.ar    1  LIG1       -0.0586
     12 C           3.2368    0.1621   -6.2709 C.ar    1  LIG1       -0.0430
     13 C           3.4441    1.2043   -5.3731 C.ar    1  LIG1        0.0456
     14 C           2.8884    1.2257   -4.0867 C.ar    1  LIG1       -0.0110
     15 C           3.0436    2.4154   -3.1884 C.3     1  LIG1       -0.0366
     16 O          -0.5512    0.0763    1.2279 O.3     1  LIG1       -0.4771
     17 O          -0.7170   -0.0656   -0.9928 O.2     1  LIG1       -0.2451
     18 CL          4.4220    2.5483   -5.9049 Cl      1  LIG1       -0.0832
     19 H           1.5823    0.0100    2.1397 H       1  LIG1        0.0626
     20 H           4.0622   -0.0216    2.2192 H       1  LIG1        0.0618
     21 H           5.3393   -0.0862    0.0738 H       1  LIG1        0.0618
     22 H           4.1679   -0.0879   -2.0803 H       1  LIG1        0.0636
     23 H           1.3314   -1.8100   -4.2679 H       1  LIG1        0.0636
     24 H           2.2738   -1.7358   -6.5736 H       1  LIG1        0.0619
     25 H           3.6835    0.2057   -7.2591 H       1  LIG1        0.0632
     26 H           4.0416    2.4559   -2.7344 H       1  LIG1        0.0279
     27 H           2.9115    3.3425   -3.7546 H       1  LIG1        0.0279
     28 H           2.3089    2.3918   -2.3810 H       1  LIG1        0.0279
     29 H           0.5302   -0.1090   -2.3746 H       1  LIG1        0.1522
     30 H          -1.5130    0.0587    1.0899 H       1  LIG1        0.2954
@<TRIPOS>BOND
     1    25    12    1
     2    24    11    1
     3    12    11   ar
     4    12    13   ar
     5    18    13    1
     6    11    10   ar
     7    13    14   ar
     8    10    23    1
     9    10     9   ar
    10    14     9   ar
    11    14    15    1
    12    27    15    1
    13     9     8    1
    14    15    26    1
    15    15    28    1
    16     8    29    1
    17     8     7    1
    18    22     6    1
    19     7     6   ar
    20     7     2   ar
    21     6     5   ar
    22    17     1    2
    23     2     1    1
    24     2     3   ar
    25     1    16    1
    26     5    21    1
    27     5     4   ar
    28    30    16    1
    29     3     4   ar
    30     3    19    1
    31     4    20    1
