@<TRIPOS>MOLECULE
zmat70.com
 30 31 0 0 0
SMALL
GASTEIGER
Energy = 0

@<TRIPOS>ATOM
      1 C           0.0000    0.0000    0.0000 C.2     1  LIG1        0.3386
      2 C           1.4620    0.0000    0.0000 C.ar    1  LIG1        0.0799
      3 C           2.1594    0.0000    1.2211 C.ar    1  LIG1       -0.0460
      4 C           3.5407    0.0170    1.2666 C.ar    1  LIG1       -0.0609
      5 C           4.2513    0.0414    0.0599 C.ar    1  LIG1       -0.0600
      6 C           3.5979    0.0370   -1.1587 C.ar    1  LIG1       -0.0397
      7 C           2.1878    0.0070   -1.2273 C.ar    1  LIG1        0.0454
      8 N           1.5378   -0.0087   -2.4284 N.pl3   1  LIG1       -0.3136
      9 C           2.1627   -0.0457   -3.6968 C.ar    1  LIG1        0.0357
     10 C           2.8194   -1.2127   -4.0964 C.ar    1  LIG1       -0.0402
     11 C           3.4072   -1.2947   -5.3519 C.ar    1  LIG1       -0.0586
     12 C           3.3192   -0.2181   -6.2294 C.ar    1  LIG1       -0.0430
     13 C           2.6511    0.9320   -5.8246 C.ar    1  LIG1        0.0456
     14 C           2.0688    1.0658   -4.5563 C.ar    1  LIG1       -0.0110
     15 C           1.3785    2.3292   -4.1387 C.3     1  LIG1       -0.0366
     16 O          -0.5525   -0.0538    1.2287 O.3     1  LIG1       -0.4771
     17 O          -0.7177    0.0480   -0.9938 O.2     1  LIG1       -0.2451
     18 CL          2.5461    2.2557   -6.9558 Cl      1  LIG1       -0.0832
     19 H           1.5821   -0.0098    2.1398 H       1  LIG1        0.0626
     20 H           4.0623    0.0182    2.2186 H       1  LIG1        0.0618
     21 H           5.3385    0.0687    0.0722 H       1  LIG1        0.0618
     22 H           4.1692    0.0641   -2.0810 H       1  LIG1        0.0636
     23 H           2.8536   -2.0529   -3.4084 H       1  LIG1        0.0636
     24 H           3.9178   -2.2030   -5.6597 H       1  LIG1        0.0619
     25 H           3.7559   -0.2655   -7.2220 H       1  LIG1        0.0632
     26 H           1.9941    3.2048   -4.3686 H       1  LIG1        0.0279
     27 H           0.4297    2.4588   -4.6745 H       1  LIG1        0.0279
     28 H           1.1679    2.3217   -3.0672 H       1  LIG1        0.0279
     29 H           0.5238    0.0612   -2.3733 H       1  LIG1        0.1522
     30 H          -1.5142   -0.0416    1.0891 H       1  LIG1        0.2954
@<TRIPOS>BOND
     1    25    12    1
     2    18    13    1
     3    12    13   ar
     4    12    11   ar
     5    13    14   ar
     6    24    11    1
     7    11    10   ar
     8    27    15    1
     9    14    15    1
    10    14     9   ar
    11    26    15    1
    12    15    28    1
    13    10     9   ar
    14    10    23    1
    15     9     8    1
    16     8    29    1
    17     8     7    1
    18    22     6    1
    19     7     6   ar
    20     7     2   ar
    21     6     5   ar
    22    17     1    2
    23     1     2    1
    24     1    16    1
    25     2     3   ar
    26     5    21    1
    27     5     4   ar
    28    30    16    1
    29     3     4   ar
    30     3    19    1
    31     4    20    1
