@<TRIPOS>MOLECULE
zmat50.com
 30 31 0 0 0
SMALL
GASTEIGER
Energy = 0

@<TRIPOS>ATOM
      1 C           0.0000    0.0000    0.0000 C.2     1  LIG1        0.3386
      2 C           1.4632    0.0000    0.0000 C.ar    1  LIG1        0.0799
      3 C           2.1572    0.0000    1.2229 C.ar    1  LIG1       -0.0460
      4 C           3.5382    0.0219    1.2718 C.ar    1  LIG1       -0.0609
      5 C           4.2514    0.0576    0.0671 C.ar    1  LIG1       -0.0600
      6 C           3.6005    0.0530   -1.1528 C.ar    1  LIG1       -0.0397
      7 C           2.1915    0.0116   -1.2258 C.ar    1  LIG1        0.0454
      8 N           1.5363    0.0150   -2.4269 N.pl3   1  LIG1       -0.3136
      9 C           2.1041   -0.1865   -3.6989 C.ar    1  LIG1        0.0357
     10 C           2.9402   -1.2834   -3.9320 C.ar    1  LIG1       -0.0402
     11 C           3.4579   -1.5146   -5.1992 C.ar    1  LIG1       -0.0586
     12 C           3.1207   -0.6734   -6.2549 C.ar    1  LIG1       -0.0430
     13 C           2.2723    0.4019   -6.0140 C.ar    1  LIG1        0.0456
     14 C           1.7567    0.6940   -4.7444 C.ar    1  LIG1       -0.0110
     15 C           0.8701    1.8781   -4.4973 C.3     1  LIG1       -0.0366
     16 O          -0.5511   -0.0841    1.2271 O.3     1  LIG1       -0.4771
     17 O          -0.7180    0.0726   -0.9918 O.2     1  LIG1       -0.2451
     18 CL          1.8512    1.4186   -7.3684 Cl      1  LIG1       -0.0832
     19 H           1.5778   -0.0133    2.1401 H       1  LIG1        0.0626
     20 H           4.0574    0.0225    2.2252 H       1  LIG1        0.0618
     21 H           5.3382    0.0984    0.0818 H       1  LIG1        0.0618
     22 H           4.1748    0.1008   -2.0721 H       1  LIG1        0.0636
     23 H           3.1635   -1.9609   -3.1128 H       1  LIG1        0.0636
     24 H           4.1067   -2.3685   -5.3747 H       1  LIG1        0.0619
     25 H           3.4982   -0.8489   -7.2571 H       1  LIG1        0.0632
     26 H           1.1809    2.7353   -5.1008 H       1  LIG1        0.0279
     27 H          -0.1732    1.6610   -4.7626 H       1  LIG1        0.0279
     28 H           0.8944    2.1664   -3.4432 H       1  LIG1        0.0279
     29 H           0.5242    0.0995   -2.3559 H       1  LIG1        0.1522
     30 H          -1.5129   -0.0659    1.0898 H       1  LIG1        0.2954
@<TRIPOS>BOND
     1    18    13    1
     2    25    12    1
     3    12    13   ar
     4    12    11   ar
     5    13    14   ar
     6    24    11    1
     7    11    10   ar
     8    26    15    1
     9    27    15    1
    10    14    15    1
    11    14     9   ar
    12    15    28    1
    13    10     9   ar
    14    10    23    1
    15     9     8    1
    16     8    29    1
    17     8     7    1
    18    22     6    1
    19     7     6   ar
    20     7     2   ar
    21     6     5   ar
    22    17     1    2
    23     1     2    1
    24     1    16    1
    25     2     3   ar
    26     5    21    1
    27     5     4   ar
    28    30    16    1
    29     3     4   ar
    30     3    19    1
    31     4    20    1
