@<TRIPOS>MOLECULE
zmat110.com
 30 31 0 0 0
SMALL
GASTEIGER
Energy = 0

@<TRIPOS>ATOM
      1 C           0.0000    0.0000    0.0000 C.2     1  LIG1        0.3386
      2 C           1.4630    0.0000    0.0000 C.ar    1  LIG1        0.0799
      3 C           2.1597    0.0000    1.2209 C.ar    1  LIG1       -0.0460
      4 C           3.5409   -0.0403    1.2670 C.ar    1  LIG1       -0.0609
      5 C           4.2514   -0.0957    0.0619 C.ar    1  LIG1       -0.0600
      6 C           3.5974   -0.0949   -1.1568 C.ar    1  LIG1       -0.0397
      7 C           2.1895   -0.0347   -1.2261 C.ar    1  LIG1        0.0454
      8 N           1.5392   -0.0102   -2.4292 N.pl3   1  LIG1       -0.3136
      9 C           2.1544   -0.1263   -3.6972 C.ar    1  LIG1        0.0357
     10 C           1.9401   -1.2959   -4.4312 C.ar    1  LIG1       -0.0402
     11 C           2.4895   -1.4443   -5.6989 C.ar    1  LIG1       -0.0586
     12 C           3.2799   -0.4327   -6.2332 C.ar    1  LIG1       -0.0430
     13 C           3.4849    0.7271   -5.4928 C.ar    1  LIG1        0.0456
     14 C           2.9197    0.9327   -4.2271 C.ar    1  LIG1       -0.0110
     15 C           3.0993    2.2250   -3.4899 C.3     1  LIG1       -0.0366
     16 O          -0.5511    0.0725    1.2284 O.3     1  LIG1       -0.4771
     17 O          -0.7180   -0.0651   -0.9920 O.2     1  LIG1       -0.2451
     18 CL          4.4757    1.9777   -6.1983 Cl      1  LIG1       -0.0832
     19 H           1.5827    0.0274    2.1393 H       1  LIG1        0.0626
     20 H           4.0620   -0.0396    2.2194 H       1  LIG1        0.0618
     21 H           5.3377   -0.1467    0.0752 H       1  LIG1        0.0618
     22 H           4.1675   -0.1565   -2.0786 H       1  LIG1        0.0636
     23 H           1.3443   -2.0889   -3.9875 H       1  LIG1        0.0636
     24 H           2.3182   -2.3546   -6.2668 H       1  LIG1        0.0619
     25 H           3.7349   -0.5327   -7.2135 H       1  LIG1        0.0632
     26 H           4.1221    2.3318   -3.1075 H       1  LIG1        0.0279
     27 H           2.9176    3.0761   -4.1542 H       1  LIG1        0.0279
     28 H           2.4121    2.2872   -2.6439 H       1  LIG1        0.0279
     29 H           0.5290   -0.1202   -2.3698 H       1  LIG1        0.1522
     30 H          -1.5130    0.0572    1.0905 H       1  LIG1        0.2954
@<TRIPOS>BOND
     1    25    12    1
     2    24    11    1
     3    12    11   ar
     4    12    13   ar
     5    18    13    1
     6    11    10   ar
     7    13    14   ar
     8    10    23    1
     9    10     9   ar
    10    14     9   ar
    11    14    15    1
    12    27    15    1
    13     9     8    1
    14    15    26    1
    15    15    28    1
    16     8    29    1
    17     8     7    1
    18    22     6    1
    19     7     6   ar
    20     7     2   ar
    21     6     5   ar
    22    17     1    2
    23     2     1    1
    24     2     3   ar
    25     1    16    1
    26     5    21    1
    27     5     4   ar
    28    30    16    1
    29     3     4   ar
    30     3    19    1
    31     4    20    1
