@<TRIPOS>MOLECULE
zmat115.com
 30 31 0 0 0
SMALL
GASTEIGER
Energy = 0

@<TRIPOS>ATOM
      1 C           0.0000    0.0000    0.0000 C.2     1  LIG1        0.3386
      2 C           1.4630    0.0000    0.0000 C.ar    1  LIG1        0.0799
      3 C           2.1594    0.0000    1.2211 C.ar    1  LIG1       -0.0460
      4 C           3.5404   -0.0435    1.2675 C.ar    1  LIG1       -0.0609
      5 C           4.2508   -0.1043    0.0626 C.ar    1  LIG1       -0.0600
      6 C           3.5970   -0.1045   -1.1562 C.ar    1  LIG1       -0.0397
      7 C           2.1896   -0.0394   -1.2260 C.ar    1  LIG1        0.0454
      8 N           1.5375   -0.0254   -2.4284 N.pl3   1  LIG1       -0.3136
      9 C           2.1436   -0.0970   -3.7021 C.ar    1  LIG1        0.0357
     10 C           1.8805   -1.2205   -4.4910 C.ar    1  LIG1       -0.0402
     11 C           2.4144   -1.3276   -5.7691 C.ar    1  LIG1       -0.0586
     12 C           3.2377   -0.3211   -6.2617 C.ar    1  LIG1       -0.0430
     13 C           3.4857    0.7956   -5.4701 C.ar    1  LIG1        0.0456
     14 C           2.9347    0.9629   -4.1924 C.ar    1  LIG1       -0.0110
     15 C           3.1465    2.2230   -3.4090 C.3     1  LIG1       -0.0366
     16 O          -0.5509    0.0853    1.2276 O.3     1  LIG1       -0.4771
     17 O          -0.7180   -0.0750   -0.9914 O.2     1  LIG1       -0.2451
     18 CL          4.5110    2.0450   -6.1276 Cl      1  LIG1       -0.0832
     19 H           1.5822    0.0307    2.1393 H       1  LIG1        0.0626
     20 H           4.0614   -0.0424    2.2200 H       1  LIG1        0.0618
     21 H           5.3369   -0.1605    0.0762 H       1  LIG1        0.0618
     22 H           4.1666   -0.1743   -2.0774 H       1  LIG1        0.0636
     23 H           1.2617   -2.0134   -4.0796 H       1  LIG1        0.0636
     24 H           2.2064   -2.2036   -6.3773 H       1  LIG1        0.0619
     25 H           3.6834   -0.3911   -7.2488 H       1  LIG1        0.0632
     26 H           4.1660    2.2853   -3.0086 H       1  LIG1        0.0279
     27 H           3.0009    3.1003   -4.0473 H       1  LIG1        0.0279
     28 H           2.4499    2.2808   -2.5704 H       1  LIG1        0.0279
     29 H           0.5278   -0.1384   -2.3670 H       1  LIG1        0.1522
     30 H          -1.5127    0.0673    1.0902 H       1  LIG1        0.2954
@<TRIPOS>BOND
     1    25    12    1
     2    24    11    1
     3    12    11   ar
     4    12    13   ar
     5    18    13    1
     6    11    10   ar
     7    13    14   ar
     8    10    23    1
     9    10     9   ar
    10    14     9   ar
    11    14    15    1
    12    27    15    1
    13     9     8    1
    14    15    26    1
    15    15    28    1
    16     8    29    1
    17     8     7    1
    18    22     6    1
    19     7     6   ar
    20     7     2   ar
    21     6     5   ar
    22    17     1    2
    23     2     1    1
    24     2     3   ar
    25     1    16    1
    26     5    21    1
    27     5     4   ar
    28    30    16    1
    29     3     4   ar
    30     3    19    1
    31     4    20    1
