@<TRIPOS>MOLECULE
zmat90.com
 30 31 0 0 0
SMALL
GASTEIGER
Energy = 0

@<TRIPOS>ATOM
      1 C           0.0000    0.0000    0.0000 C.2     1  LIG1        0.3386
      2 C           1.4620    0.0000    0.0000 C.ar    1  LIG1        0.0799
      3 C           2.1617    0.0000    1.2195 C.ar    1  LIG1       -0.0460
      4 C           3.5433   -0.0211    1.2621 C.ar    1  LIG1       -0.0609
      5 C           4.2523   -0.0475    0.0546 C.ar    1  LIG1       -0.0600
      6 C           3.5959   -0.0471   -1.1626 C.ar    1  LIG1       -0.0397
      7 C           2.1861   -0.0182   -1.2277 C.ar    1  LIG1        0.0454
      8 N           1.5413    0.0118   -2.4312 N.pl3   1  LIG1       -0.3136
      9 C           2.1851   -0.1663   -3.6842 C.ar    1  LIG1        0.0357
     10 C           2.2981   -1.4569   -4.2051 C.ar    1  LIG1       -0.0402
     11 C           2.9012   -1.6682   -5.4396 C.ar    1  LIG1       -0.0586
     12 C           3.4083   -0.5878   -6.1538 C.ar    1  LIG1       -0.0430
     13 C           3.2974    0.6915   -5.6193 C.ar    1  LIG1        0.0456
     14 C           2.6867    0.9476   -4.3839 C.ar    1  LIG1       -0.0110
     15 C           2.5734    2.3393   -3.8405 C.3     1  LIG1       -0.0366
     16 O          -0.5518    0.0277    1.2302 O.3     1  LIG1       -0.4771
     17 O          -0.7177   -0.0262   -0.9943 O.2     1  LIG1       -0.2451
     18 CL          3.9458    2.0226   -6.5409 Cl      1  LIG1       -0.0832
     19 H           1.5865    0.0141    2.1395 H       1  LIG1        0.0626
     20 H           4.0666   -0.0208    2.2134 H       1  LIG1        0.0618
     21 H           5.3396   -0.0698    0.0654 H       1  LIG1        0.0618
     22 H           4.1638   -0.0725   -2.0876 H       1  LIG1        0.0636
     23 H           1.9051   -2.2883   -3.6265 H       1  LIG1        0.0636
     24 H           2.9827   -2.6724   -5.8463 H       1  LIG1        0.0619
     25 H           3.8878   -0.7275   -7.1178 H       1  LIG1        0.0632
     26 H           3.5642    2.7758   -3.6670 H       1  LIG1        0.0279
     27 H           2.0591    2.9952   -4.5520 H       1  LIG1        0.0279
     28 H           2.0214    2.3423   -2.8990 H       1  LIG1        0.0279
     29 H           0.5266   -0.0535   -2.3820 H       1  LIG1        0.1522
     30 H          -1.5135    0.0212    1.0909 H       1  LIG1        0.2954
@<TRIPOS>BOND
     1    25    12    1
     2    18    13    1
     3    12    13   ar
     4    12    11   ar
     5    24    11    1
     6    13    14   ar
     7    11    10   ar
     8    27    15    1
     9    14    15    1
    10    14     9   ar
    11    10     9   ar
    12    10    23    1
    13    15    26    1
    14    15    28    1
    15     9     8    1
    16     8    29    1
    17     8     7    1
    18    22     6    1
    19     7     6   ar
    20     7     2   ar
    21     6     5   ar
    22    17     1    2
    23     2     1    1
    24     2     3   ar
    25     1    16    1
    26     5    21    1
    27     5     4   ar
    28    30    16    1
    29     3     4   ar
    30     3    19    1
    31     4    20    1
