@<TRIPOS>MOLECULE
zmat75.com
 30 31 0 0 0
SMALL
GASTEIGER
Energy = 0

@<TRIPOS>ATOM
      1 C           0.0000    0.0000    0.0000 C.2     1  LIG1        0.3386
      2 C           1.4617    0.0000    0.0000 C.ar    1  LIG1        0.0799
      3 C           2.1603    0.0000    1.2204 C.ar    1  LIG1       -0.0460
      4 C           3.5416    0.0130    1.2646 C.ar    1  LIG1       -0.0609
      5 C           4.2515    0.0315    0.0572 C.ar    1  LIG1       -0.0600
      6 C           3.5970    0.0284   -1.1608 C.ar    1  LIG1       -0.0397
      7 C           2.1867    0.0057   -1.2278 C.ar    1  LIG1        0.0454
      8 N           1.5380   -0.0057   -2.4289 N.pl3   1  LIG1       -0.3136
      9 C           2.1727   -0.0283   -3.6949 C.ar    1  LIG1        0.0357
     10 C           2.7487   -1.2205   -4.1402 C.ar    1  LIG1       -0.0402
     11 C           3.3485   -1.2883   -5.3913 C.ar    1  LIG1       -0.0586
     12 C           3.3575   -0.1670   -6.2154 C.ar    1  LIG1       -0.0430
     13 C           2.7724    1.0106   -5.7639 C.ar    1  LIG1        0.0456
     14 C           2.1769    1.1267   -4.4999 C.ar    1  LIG1       -0.0110
     15 C           1.5732    2.4169   -4.0336 C.3     1  LIG1       -0.0366
     16 O          -0.5526   -0.0457    1.2292 O.3     1  LIG1       -0.4771
     17 O          -0.7177    0.0410   -0.9942 O.2     1  LIG1       -0.2451
     18 CL          2.7902    2.3924   -6.8282 Cl      1  LIG1       -0.0832
     19 H           1.5838   -0.0079    2.1397 H       1  LIG1        0.0626
     20 H           4.0641    0.0139    2.2163 H       1  LIG1        0.0618
     21 H           5.3388    0.0522    0.0688 H       1  LIG1        0.0618
     22 H           4.1672    0.0485   -2.0841 H       1  LIG1        0.0636
     23 H           2.7119   -2.0903   -3.4903 H       1  LIG1        0.0636
     24 H           3.7957   -2.2166   -5.7358 H       1  LIG1        0.0619
     25 H           3.8076   -0.1996   -7.2027 H       1  LIG1        0.0632
     26 H           2.2748    3.2471   -4.1668 H       1  LIG1        0.0279
     27 H           0.6751    2.6649   -4.6128 H       1  LIG1        0.0279
     28 H           1.2967    2.3583   -2.9790 H       1  LIG1        0.0279
     29 H           0.5232    0.0532   -2.3771 H       1  LIG1        0.1522
     30 H          -1.5141   -0.0354    1.0895 H       1  LIG1        0.2954
@<TRIPOS>BOND
     1    25    12    1
     2    18    13    1
     3    12    13   ar
     4    12    11   ar
     5    13    14   ar
     6    24    11    1
     7    11    10   ar
     8    27    15    1
     9    14    15    1
    10    14     9   ar
    11    26    15    1
    12    10     9   ar
    13    10    23    1
    14    15    28    1
    15     9     8    1
    16     8    29    1
    17     8     7    1
    18    22     6    1
    19     7     6   ar
    20     7     2   ar
    21     6     5   ar
    22    17     1    2
    23     1     2    1
    24     1    16    1
    25     2     3   ar
    26     5    21    1
    27     5     4   ar
    28    30    16    1
    29     3     4   ar
    30     3    19    1
    31     4    20    1
