@<TRIPOS>MOLECULE
zmat45.com
 30 31 0 0 0
SMALL
GASTEIGER
Energy = 0

@<TRIPOS>ATOM
      1 C           0.0000    0.0000    0.0000 C.2     1  LIG1        0.3386
      2 C           1.4636    0.0000    0.0000 C.ar    1  LIG1        0.0799
      3 C           2.1565    0.0000    1.2234 C.ar    1  LIG1       -0.0460
      4 C           3.5375    0.0226    1.2733 C.ar    1  LIG1       -0.0609
      5 C           4.2516    0.0605    0.0694 C.ar    1  LIG1       -0.0600
      6 C           3.6013    0.0560   -1.1509 C.ar    1  LIG1       -0.0397
      7 C           2.1927    0.0124   -1.2251 C.ar    1  LIG1        0.0454
      8 N           1.5369    0.0227   -2.4267 N.pl3   1  LIG1       -0.3136
      9 C           2.0869   -0.2240   -3.6970 C.ar    1  LIG1        0.0357
     10 C           2.9581   -1.2991   -3.9008 C.ar    1  LIG1       -0.0402
     11 C           3.4562   -1.5670   -5.1687 C.ar    1  LIG1       -0.0586
     12 C           3.0671   -0.7861   -6.2521 C.ar    1  LIG1       -0.0430
     13 C           2.1840    0.2675   -6.0393 C.ar    1  LIG1        0.0456
     14 C           1.6850    0.5961   -4.7727 C.ar    1  LIG1       -0.0110
     15 C           0.7584    1.7542   -4.5490 C.3     1  LIG1       -0.0366
     16 O          -0.5506   -0.0924    1.2265 O.3     1  LIG1       -0.4771
     17 O          -0.7180    0.0796   -0.9912 O.2     1  LIG1       -0.2451
     18 CL          1.6992    1.2047   -7.4298 Cl      1  LIG1       -0.0832
     19 H           1.5765   -0.0140    2.1402 H       1  LIG1        0.0626
     20 H           4.0558    0.0230    2.2272 H       1  LIG1        0.0618
     21 H           5.3381    0.1040    0.0849 H       1  LIG1        0.0618
     22 H           4.1762    0.1089   -2.0695 H       1  LIG1        0.0636
     23 H           3.2227   -1.9342   -3.0605 H       1  LIG1        0.0636
     24 H           4.1316   -2.4043   -5.3215 H       1  LIG1        0.0619
     25 H           3.4304   -0.9918   -7.2538 H       1  LIG1        0.0632
     26 H           0.9636    2.5665   -5.2505 H       1  LIG1        0.0279
     27 H          -0.2912    1.4632   -4.6909 H       1  LIG1        0.0279
     28 H           0.8611    2.1381   -3.5301 H       1  LIG1        0.0279
     29 H           0.5254    0.1125   -2.3514 H       1  LIG1        0.1522
     30 H          -1.5125   -0.0726    1.0899 H       1  LIG1        0.2954
@<TRIPOS>BOND
     1    18    13    1
     2    25    12    1
     3    12    13   ar
     4    12    11   ar
     5    13    14   ar
     6    24    11    1
     7    26    15    1
     8    11    10   ar
     9    14    15    1
    10    14     9   ar
    11    27    15    1
    12    15    28    1
    13    10     9   ar
    14    10    23    1
    15     9     8    1
    16     8    29    1
    17     8     7    1
    18    22     6    1
    19     7     6   ar
    20     7     2   ar
    21     6     5   ar
    22    17     1    2
    23     1     2    1
    24     1    16    1
    25     2     3   ar
    26     5    21    1
    27     5     4   ar
    28    30    16    1
    29     3     4   ar
    30     3    19    1
    31     4    20    1
