@<TRIPOS>MOLECULE
zmat25.com
 30 31 0 0 0
SMALL
GASTEIGER
Energy = 0

@<TRIPOS>ATOM
      1 C           0.0000    0.0000    0.0000 C.2     1  LIG1        0.3386
      2 C           1.4657    0.0000    0.0000 C.ar    1  LIG1        0.0799
      3 C           2.1549    0.0000    1.2253 C.ar    1  LIG1       -0.0460
      4 C           3.5359    0.0245    1.2784 C.ar    1  LIG1       -0.0609
      5 C           4.2536    0.0693    0.0775 C.ar    1  LIG1       -0.0600
      6 C           3.6047    0.0671   -1.1441 C.ar    1  LIG1       -0.0397
      7 C           2.1977    0.0152   -1.2222 C.ar    1  LIG1        0.0454
      8 N           1.5426    0.0521   -2.4289 N.pl3   1  LIG1       -0.3136
      9 C           2.0052   -0.3887   -3.6769 C.ar    1  LIG1        0.0357
     10 C           2.9868   -1.3771   -3.8022 C.ar    1  LIG1       -0.0402
     11 C           3.3931   -1.8029   -5.0606 C.ar    1  LIG1       -0.0586
     12 C           2.8173   -1.2672   -6.2060 C.ar    1  LIG1       -0.0430
     13 C           1.8295   -0.2954   -6.0672 C.ar    1  LIG1        0.0456
     14 C           1.4069    0.1841   -4.8236 C.ar    1  LIG1       -0.0110
     15 C           0.3660    1.2534   -4.6678 C.3     1  LIG1       -0.0366
     16 O          -0.5482   -0.1328    1.2231 O.3     1  LIG1       -0.4771
     17 O          -0.7178    0.1131   -0.9872 O.2     1  LIG1       -0.2451
     18 CL          1.1189    0.3317   -7.5343 Cl      1  LIG1       -0.0832
     19 H           1.5730   -0.0156    2.1408 H       1  LIG1        0.0626
     20 H           4.0514    0.0247    2.2339 H       1  LIG1        0.0618
     21 H           5.3397    0.1220    0.0960 H       1  LIG1        0.0618
     22 H           4.1805    0.1405   -2.0606 H       1  LIG1        0.0636
     23 H           3.4040   -1.8390   -2.9134 H       1  LIG1        0.0636
     24 H           4.1516   -2.5762   -5.1493 H       1  LIG1        0.0619
     25 H           3.1147   -1.5984   -7.1955 H       1  LIG1        0.0632
     26 H           0.2326    1.8188   -5.5915 H       1  LIG1        0.0279
     27 H          -0.6123    0.8307   -4.4000 H       1  LIG1        0.0279
     28 H           0.6485    1.9496   -3.8710 H       1  LIG1        0.0279
     29 H           0.5347    0.1654   -2.3345 H       1  LIG1        0.1522
     30 H          -1.5105   -0.1048    1.0903 H       1  LIG1        0.2954
@<TRIPOS>BOND
     1    18    13    1
     2    25    12    1
     3    12    13   ar
     4    12    11   ar
     5    13    14   ar
     6    26    15    1
     7    24    11    1
     8    11    10   ar
     9    14    15    1
    10    14     9   ar
    11    15    27    1
    12    15    28    1
    13    10     9   ar
    14    10    23    1
    15     9     8    1
    16     8    29    1
    17     8     7    1
    18    22     6    1
    19     7     6   ar
    20     7     2   ar
    21     6     5   ar
    22    17     1    2
    23     1     2    1
    24     1    16    1
    25     2     3   ar
    26     5    21    1
    27     5     4   ar
    28    30    16    1
    29     3     4   ar
    30     3    19    1
    31     4    20    1
