@<TRIPOS>MOLECULE
zmat155.com
 30 31 0 0 0
SMALL
GASTEIGER
Energy = 0

@<TRIPOS>ATOM
      1 C           0.0000    0.0000    0.0000 C.2     1  LIG1        0.3386
      2 C           1.4650    0.0000    0.0000 C.ar    1  LIG1        0.0799
      3 C           2.1607    0.0000    1.2224 C.ar    1  LIG1       -0.0460
      4 C           3.5420   -0.0256    1.2680 C.ar    1  LIG1       -0.0609
      5 C           4.2563   -0.0699    0.0638 C.ar    1  LIG1       -0.0600
      6 C           3.6006   -0.0658   -1.1528 C.ar    1  LIG1       -0.0397
      7 C           2.1935   -0.0059   -1.2220 C.ar    1  LIG1        0.0454
      8 N           1.5506   -0.0554   -2.4346 N.pl3   1  LIG1       -0.3136
      9 C           1.9880    0.4220   -3.6828 C.ar    1  LIG1        0.0357
     10 C           1.4259   -0.2148   -4.7992 C.ar    1  LIG1       -0.0402
     11 C           1.7526    0.1774   -6.0873 C.ar    1  LIG1       -0.0586
     12 C           2.6587    1.2139   -6.2880 C.ar    1  LIG1       -0.0430
     13 C           3.1597    1.8812   -5.1774 C.ar    1  LIG1        0.0456
     14 C           2.8047    1.5643   -3.8562 C.ar    1  LIG1       -0.0110
     15 C           3.1799    2.4844   -2.7311 C.3     1  LIG1       -0.0366
     16 O          -0.5487    0.1318    1.2233 O.3     1  LIG1       -0.4771
     17 O          -0.7161   -0.1120   -0.9884 O.2     1  LIG1       -0.2451
     18 CL          4.2472    3.2165   -5.4723 Cl      1  LIG1       -0.0832
     19 H           1.5835    0.0140    2.1410 H       1  LIG1        0.0626
     20 H           4.0618   -0.0288    2.2212 H       1  LIG1        0.0618
     21 H           5.3424   -0.1242    0.0788 H       1  LIG1        0.0618
     22 H           4.1636   -0.1338   -2.0789 H       1  LIG1        0.0636
     23 H           0.7583   -1.0565   -4.6330 H       1  LIG1        0.0636
     24 H           1.3199   -0.3388   -6.9398 H       1  LIG1        0.0619
     25 H           2.9602    1.5179   -7.2850 H       1  LIG1        0.0632
     26 H           4.1925    2.3055   -2.3489 H       1  LIG1        0.0279
     27 H           3.1452    3.5217   -3.0760 H       1  LIG1        0.0279
     28 H           2.4899    2.3826   -1.8911 H       1  LIG1        0.0279
     29 H           0.5447   -0.1932   -2.3486 H       1  LIG1        0.1522
     30 H          -1.5110    0.1020    1.0903 H       1  LIG1        0.2954
@<TRIPOS>BOND
     1    25    12    1
     2    24    11    1
     3    12    11   ar
     4    12    13   ar
     5    11    10   ar
     6    18    13    1
     7    13    14   ar
     8    10    23    1
     9    10     9   ar
    10    14     9   ar
    11    14    15    1
    12     9     8    1
    13    27    15    1
    14    15    26    1
    15    15    28    1
    16     8    29    1
    17     8     7    1
    18    22     6    1
    19     7     6   ar
    20     7     2   ar
    21     6     5   ar
    22    17     1    2
    23     2     1    1
    24     2     3   ar
    25     1    16    1
    26     5    21    1
    27     5     4   ar
    28    30    16    1
    29     3     4   ar
    30     3    19    1
    31     4    20    1
