@<TRIPOS>MOLECULE
zmat5.com
 30 31 0 0 0
SMALL
GASTEIGER
Energy = 0

@<TRIPOS>ATOM
      1 C           0.0000    0.0000    0.0000 C.2     1  LIG1        0.3386
      2 C           1.4681    0.0000    0.0000 C.ar    1  LIG1        0.0799
      3 C           2.1537    0.0000    1.2267 C.ar    1  LIG1       -0.0460
      4 C           3.5353    0.0264    1.2824 C.ar    1  LIG1       -0.0609
      5 C           4.2565    0.0772    0.0850 C.ar    1  LIG1       -0.0600
      6 C           3.6078    0.0765   -1.1378 C.ar    1  LIG1       -0.0397
      7 C           2.2028    0.0131   -1.2189 C.ar    1  LIG1        0.0454
      8 N           1.5527    0.0559   -2.4353 N.pl3   1  LIG1       -0.3136
      9 C           1.9131   -0.5827   -3.6299 C.ar    1  LIG1        0.0357
     10 C           2.9857   -1.4746   -3.7308 C.ar    1  LIG1       -0.0402
     11 C           3.2881   -2.0697   -4.9502 C.ar    1  LIG1       -0.0586
     12 C           2.5349   -1.7898   -6.0820 C.ar    1  LIG1       -0.0430
     13 C           1.4668   -0.9025   -5.9682 C.ar    1  LIG1        0.0456
     14 C           1.1308   -0.2687   -4.7696 C.ar    1  LIG1       -0.0110
     15 C          -0.0003    0.7096   -4.6462 C.3     1  LIG1       -0.0366
     16 O          -0.5454   -0.1695    1.2192 O.3     1  LIG1       -0.4771
     17 O          -0.7171    0.1443   -0.9824 O.2     1  LIG1       -0.2451
     18 CL          0.5392   -0.5936   -7.4166 Cl      1  LIG1       -0.0832
     19 H           1.5705   -0.0159    2.1414 H       1  LIG1        0.0626
     20 H           4.0479    0.0270    2.2396 H       1  LIG1        0.0618
     21 H           5.3419    0.1384    0.1064 H       1  LIG1        0.0618
     22 H           4.1827    0.1705   -2.0527 H       1  LIG1        0.0636
     23 H           3.5547   -1.7461   -2.8491 H       1  LIG1        0.0636
     24 H           4.1156   -2.7714   -5.0131 H       1  LIG1        0.0619
     25 H           2.7572   -2.2505   -7.0386 H       1  LIG1        0.0632
     26 H          -0.3863    1.0001   -5.6238 H       1  LIG1        0.0279
     27 H          -0.8397    0.2903   -4.0744 H       1  LIG1        0.0279
     28 H           0.3281    1.6157   -4.1232 H       1  LIG1        0.0279
     29 H           0.5510    0.2012   -2.3234 H       1  LIG1        0.1522
     30 H          -1.5082   -0.1334    1.0910 H       1  LIG1        0.2954
@<TRIPOS>BOND
     1    18    13    1
     2    25    12    1
     3    12    13   ar
     4    12    11   ar
     5    13    14   ar
     6    26    15    1
     7    24    11    1
     8    11    10   ar
     9    14    15    1
    10    14     9   ar
    11    15    28    1
    12    15    27    1
    13    10     9   ar
    14    10    23    1
    15     9     8    1
    16     8    29    1
    17     8     7    1
    18    22     6    1
    19     7     6   ar
    20     7     2   ar
    21     6     5   ar
    22    17     1    2
    23     1     2    1
    24     1    16    1
    25     2     3   ar
    26     5    21    1
    27     5     4   ar
    28    30    16    1
    29     3     4   ar
    30     3    19    1
    31     4    20    1
